REMARK  Name = ../refined-set-2016/3pb9/3pb9_pocket.pdb
REMARK  119 active torsions:
REMARK  status: ('A' for Active; 'I' for Inactive)
REMARK    1  A    between atoms: _1  and  _3
REMARK    2  A    between atoms: _3  and  _4
REMARK    3  A    between atoms: _3  and  _6
REMARK    4  A    between atoms: _6  and  _7
REMARK    5  A    between atoms: _12  and  _14
REMARK    6  A    between atoms: _14  and  _15
REMARK    7  A    between atoms: _14  and  _17
REMARK    8  A    between atoms: _17  and  _18
REMARK    9  A    between atoms: _18  and  _19
REMARK   10  A    between atoms: _19  and  _20
REMARK   11  A    between atoms: _20  and  _21
REMARK   12  A    between atoms: _25  and  _27
REMARK   13  A    between atoms: _27  and  _28
REMARK   14  A    between atoms: _27  and  _30
REMARK   15  A    between atoms: _30  and  _31
REMARK   16  A    between atoms: _37  and  _39
REMARK   17  A    between atoms: _39  and  _40
REMARK   18  A    between atoms: _39  and  _42
REMARK   19  A    between atoms: _42  and  _43
REMARK   20  A    between atoms: _46  and  _48
REMARK   21  A    between atoms: _48  and  _49
REMARK   22  A    between atoms: _48  and  _51
REMARK   23  A    between atoms: _51  and  _52
REMARK   24  A    between atoms: _52  and  _54
REMARK   25  A    between atoms: _54  and  ZN_284
REMARK   26  A    between atoms: _55  and  _57
REMARK   27  A    between atoms: _57  and  _58
REMARK   28  A    between atoms: _57  and  _60
REMARK   29  A    between atoms: _60  and  _61
REMARK   30  A    between atoms: _63  and  _65
REMARK   31  A    between atoms: _65  and  _66
REMARK   32  A    between atoms: _65  and  _68
REMARK   33  A    between atoms: _68  and  _69
REMARK   34  A    between atoms: _69  and  _70
REMARK   35  A    between atoms: _73  and  _75
REMARK   36  A    between atoms: _75  and  _76
REMARK   37  A    between atoms: _75  and  _78
REMARK   38  A    between atoms: _78  and  _79
REMARK   39  A    between atoms: _79  and  _80
REMARK   40  A    between atoms: _80  and  _82
REMARK   41  A    between atoms: _82  and  ZN_284
REMARK   42  A    between atoms: _83  and  _85
REMARK   43  A    between atoms: _85  and  _86
REMARK   44  A    between atoms: _89  and  _91
REMARK   45  A    between atoms: _91  and  _92
REMARK   46  A    between atoms: _91  and  _94
REMARK   47  A    between atoms: _94  and  _95
REMARK   48  A    between atoms: _105  and  _107
REMARK   49  A    between atoms: _107  and  _108
REMARK   50  A    between atoms: _110  and  _112
REMARK   51  A    between atoms: _112  and  _113
REMARK   52  A    between atoms: _112  and  _115
REMARK   53  A    between atoms: _115  and  _116
REMARK   54  A    between atoms: _118  and  _120
REMARK   55  A    between atoms: _120  and  _121
REMARK   56  A    between atoms: _120  and  _123
REMARK   57  A    between atoms: _123  and  _124
REMARK   58  A    between atoms: _127  and  _129
REMARK   59  A    between atoms: _129  and  _130
REMARK   60  A    between atoms: _129  and  _132
REMARK   61  A    between atoms: _132  and  _133
REMARK   62  A    between atoms: _136  and  _138
REMARK   63  A    between atoms: _138  and  _139
REMARK   64  A    between atoms: _138  and  _141
REMARK   65  A    between atoms: _141  and  _142
REMARK   66  A    between atoms: _145  and  _147
REMARK   67  A    between atoms: _147  and  _148
REMARK   68  A    between atoms: _147  and  _150
REMARK   69  A    between atoms: _150  and  _151
REMARK   70  A    between atoms: _154  and  _156
REMARK   71  A    between atoms: _156  and  _157
REMARK   72  A    between atoms: _156  and  _159
REMARK   73  A    between atoms: _159  and  _160
REMARK   74  A    between atoms: _163  and  _165
REMARK   75  A    between atoms: _165  and  _166
REMARK   76  A    between atoms: _165  and  _168
REMARK   77  A    between atoms: _168  and  _169
REMARK   78  A    between atoms: _171  and  _173
REMARK   79  A    between atoms: _173  and  _174
REMARK   80  A    between atoms: _173  and  _176
REMARK   81  A    between atoms: _179  and  _181
REMARK   82  A    between atoms: _181  and  _182
REMARK   83  A    between atoms: _181  and  _184
REMARK   84  A    between atoms: _184  and  _185
REMARK   85  A    between atoms: _185  and  _186
REMARK   86  A    between atoms: _189  and  _191
REMARK   87  A    between atoms: _191  and  _192
REMARK   88  A    between atoms: _191  and  _194
REMARK   89  A    between atoms: _194  and  _195
REMARK   90  A    between atoms: _198  and  _200
REMARK   91  A    between atoms: _200  and  _201
REMARK   92  A    between atoms: _200  and  _203
REMARK   93  A    between atoms: _203  and  _204
REMARK   94  A    between atoms: _207  and  _209
REMARK   95  A    between atoms: _209  and  _210
REMARK   96  A    between atoms: _209  and  _212
REMARK   97  A    between atoms: _212  and  _213
REMARK   98  A    between atoms: _218  and  _220
REMARK   99  A    between atoms: _220  and  _221
REMARK  100  A    between atoms: _220  and  _223
REMARK  101  A    between atoms: _223  and  _224
REMARK  102  A    between atoms: _229  and  _231
REMARK  103  A    between atoms: _231  and  _232
REMARK  104  A    between atoms: _231  and  _234
REMARK  105  A    between atoms: _234  and  _235
REMARK  106  A    between atoms: _238  and  _240
REMARK  107  A    between atoms: _240  and  _241
REMARK  108  A    between atoms: _240  and  _243
REMARK  109  A    between atoms: _243  and  _244
REMARK  110  A    between atoms: _251  and  _252
REMARK  111  A    between atoms: _257  and  _259
REMARK  112  A    between atoms: _259  and  _260
REMARK  113  A    between atoms: _259  and  _262
REMARK  114  A    between atoms: _262  and  _263
REMARK  115  A    between atoms: _273  and  _275
REMARK  116  A    between atoms: _275  and  _276
REMARK  117  A    between atoms: _275  and  _278
REMARK  118  A    between atoms: _278  and  _279
REMARK  119  A    between atoms: _283  and  ZN_284
REMARK                            x       y       z     vdW  Elec       q    Type
REMARK                         _______ _______ _______ _____ _____    ______ ____
ROOT
ATOM      1  CB  HIS A   1      14.329   9.373 -10.000  0.00  0.00    +0.072 C 
ENDROOT
BRANCH   1   2
ATOM      2  CG  HIS A   1      13.030  10.066  -9.832  0.00  0.00    +0.082 A 
ATOM      3  ND1 HIS A   1      12.851  11.078  -8.904  0.00  0.00    -0.227 NA
ATOM      4  CE1 HIS A   1      11.621  11.530  -8.956  0.00  0.00    +0.199 A 
ATOM      5  NE2 HIS A   1      10.981  10.876  -9.892  0.00  0.00    -0.221 NA
ATOM      6  CD2 HIS A   1      11.846   9.952 -10.463  0.00  0.00    +0.115 A 
ENDBRANCH   1   2
BRANCH   1   7
ATOM      7  CA  HIS A   1      14.570   8.108  -9.174  0.00  0.00    +0.139 C 
BRANCH   7   8
ATOM      8  N   HIS A   1      13.883   6.959  -9.734  0.00  0.00    -0.239 NA
ATOM      9  H   HIS A   1      12.860   7.008  -9.916  0.00  0.00    +0.142 HD
ENDBRANCH   7   8
BRANCH   7  10
ATOM     10  C   HIS A   1      14.223   8.289  -7.702  0.00  0.00    +0.224 C 
ATOM     11  O   HIS A   1      13.038   8.143  -7.356  0.00  0.00    -0.287 OA
ENDBRANCH   7  10
ENDBRANCH   1   7
TORSDOF 4
REMARK  Name = ../refined-set-2016/3pb9/3pb9_pocket.pdb
REMARK  119 active torsions:
REMARK  status: ('A' for Active; 'I' for Inactive)
REMARK    1  A    between atoms: _1  and  _3
REMARK    2  A    between atoms: _3  and  _4
REMARK    3  A    between atoms: _3  and  _6
REMARK    4  A    between atoms: _6  and  _7
REMARK    5  A    between atoms: _12  and  _14
REMARK    6  A    between atoms: _14  and  _15
REMARK    7  A    between atoms: _14  and  _17
REMARK    8  A    between atoms: _17  and  _18
REMARK    9  A    between atoms: _18  and  _19
REMARK   10  A    between atoms: _19  and  _20
REMARK   11  A    between atoms: _20  and  _21
REMARK   12  A    between atoms: _25  and  _27
REMARK   13  A    between atoms: _27  and  _28
REMARK   14  A    between atoms: _27  and  _30
REMARK   15  A    between atoms: _30  and  _31
REMARK   16  A    between atoms: _37  and  _39
REMARK   17  A    between atoms: _39  and  _40
REMARK   18  A    between atoms: _39  and  _42
REMARK   19  A    between atoms: _42  and  _43
REMARK   20  A    between atoms: _46  and  _48
REMARK   21  A    between atoms: _48  and  _49
REMARK   22  A    between atoms: _48  and  _51
REMARK   23  A    between atoms: _51  and  _52
REMARK   24  A    between atoms: _52  and  _54
REMARK   25  A    between atoms: _54  and  ZN_284
REMARK   26  A    between atoms: _55  and  _57
REMARK   27  A    between atoms: _57  and  _58
REMARK   28  A    between atoms: _57  and  _60
REMARK   29  A    between atoms: _60  and  _61
REMARK   30  A    between atoms: _63  and  _65
REMARK   31  A    between atoms: _65  and  _66
REMARK   32  A    between atoms: _65  and  _68
REMARK   33  A    between atoms: _68  and  _69
REMARK   34  A    between atoms: _69  and  _70
REMARK   35  A    between atoms: _73  and  _75
REMARK   36  A    between atoms: _75  and  _76
REMARK   37  A    between atoms: _75  and  _78
REMARK   38  A    between atoms: _78  and  _79
REMARK   39  A    between atoms: _79  and  _80
REMARK   40  A    between atoms: _80  and  _82
REMARK   41  A    between atoms: _82  and  ZN_284
REMARK   42  A    between atoms: _83  and  _85
REMARK   43  A    between atoms: _85  and  _86
REMARK   44  A    between atoms: _89  and  _91
REMARK   45  A    between atoms: _91  and  _92
REMARK   46  A    between atoms: _91  and  _94
REMARK   47  A    between atoms: _94  and  _95
REMARK   48  A    between atoms: _105  and  _107
REMARK   49  A    between atoms: _107  and  _108
REMARK   50  A    between atoms: _110  and  _112
REMARK   51  A    between atoms: _112  and  _113
REMARK   52  A    between atoms: _112  and  _115
REMARK   53  A    between atoms: _115  and  _116
REMARK   54  A    between atoms: _118  and  _120
REMARK   55  A    between atoms: _120  and  _121
REMARK   56  A    between atoms: _120  and  _123
REMARK   57  A    between atoms: _123  and  _124
REMARK   58  A    between atoms: _127  and  _129
REMARK   59  A    between atoms: _129  and  _130
REMARK   60  A    between atoms: _129  and  _132
REMARK   61  A    between atoms: _132  and  _133
REMARK   62  A    between atoms: _136  and  _138
REMARK   63  A    between atoms: _138  and  _139
REMARK   64  A    between atoms: _138  and  _141
REMARK   65  A    between atoms: _141  and  _142
REMARK   66  A    between atoms: _145  and  _147
REMARK   67  A    between atoms: _147  and  _148
REMARK   68  A    between atoms: _147  and  _150
REMARK   69  A    between atoms: _150  and  _151
REMARK   70  A    between atoms: _154  and  _156
REMARK   71  A    between atoms: _156  and  _157
REMARK   72  A    between atoms: _156  and  _159
REMARK   73  A    between atoms: _159  and  _160
REMARK   74  A    between atoms: _163  and  _165
REMARK   75  A    between atoms: _165  and  _166
REMARK   76  A    between atoms: _165  and  _168
REMARK   77  A    between atoms: _168  and  _169
REMARK   78  A    between atoms: _171  and  _173
REMARK   79  A    between atoms: _173  and  _174
REMARK   80  A    between atoms: _173  and  _176
REMARK   81  A    between atoms: _179  and  _181
REMARK   82  A    between atoms: _181  and  _182
REMARK   83  A    between atoms: _181  and  _184
REMARK   84  A    between atoms: _184  and  _185
REMARK   85  A    between atoms: _185  and  _186
REMARK   86  A    between atoms: _189  and  _191
REMARK   87  A    between atoms: _191  and  _192
REMARK   88  A    between atoms: _191  and  _194
REMARK   89  A    between atoms: _194  and  _195
REMARK   90  A    between atoms: _198  and  _200
REMARK   91  A    between atoms: _200  and  _201
REMARK   92  A    between atoms: _200  and  _203
REMARK   93  A    between atoms: _203  and  _204
REMARK   94  A    between atoms: _207  and  _209
REMARK   95  A    between atoms: _209  and  _210
REMARK   96  A    between atoms: _209  and  _212
REMARK   97  A    between atoms: _212  and  _213
REMARK   98  A    between atoms: _218  and  _220
REMARK   99  A    between atoms: _220  and  _221
REMARK  100  A    between atoms: _220  and  _223
REMARK  101  A    between atoms: _223  and  _224
REMARK  102  A    between atoms: _229  and  _231
REMARK  103  A    between atoms: _231  and  _232
REMARK  104  A    between atoms: _231  and  _234
REMARK  105  A    between atoms: _234  and  _235
REMARK  106  A    between atoms: _238  and  _240
REMARK  107  A    between atoms: _240  and  _241
REMARK  108  A    between atoms: _240  and  _243
REMARK  109  A    between atoms: _243  and  _244
REMARK  110  A    between atoms: _251  and  _252
REMARK  111  A    between atoms: _257  and  _259
REMARK  112  A    between atoms: _259  and  _260
REMARK  113  A    between atoms: _259  and  _262
REMARK  114  A    between atoms: _262  and  _263
REMARK  115  A    between atoms: _273  and  _275
REMARK  116  A    between atoms: _275  and  _276
REMARK  117  A    between atoms: _275  and  _278
REMARK  118  A    between atoms: _278  and  _279
REMARK  119  A    between atoms: _283  and  ZN_284
REMARK                            x       y       z     vdW  Elec       q    Type
REMARK                         _______ _______ _______ _____ _____    ______ ____
ROOT
ATOM      1  CG  LYS A   1       9.929  19.103  -9.009  0.00  0.00    -0.000 C 
ENDROOT
BRANCH   1   2
ATOM      2  CB  LYS A   1      10.033  17.846  -8.159  0.00  0.00    +0.025 C 
BRANCH   2   3
ATOM      3  CA  LYS A   1      11.221  17.754  -7.245  0.00  0.00    +0.133 C 
BRANCH   3   4
ATOM      4  N   LYS A   1      11.180  16.507  -6.509  0.00  0.00    -0.239 NA
ATOM      5  H   LYS A   1      10.330  15.912  -6.582  0.00  0.00    +0.142 HD
ENDBRANCH   3   4
BRANCH   3   6
ATOM      6  C   LYS A   1      11.218  18.940  -6.291  0.00  0.00    +0.224 C 
ATOM      7  O   LYS A   1      10.400  19.029  -5.375  0.00  0.00    -0.287 OA
ENDBRANCH   3   6
ENDBRANCH   2   3
ENDBRANCH   1   2
BRANCH   1   8
ATOM      8  CD  LYS A   1       8.817  18.996 -10.036  0.00  0.00    -0.024 C 
BRANCH   8   9
ATOM      9  CE  LYS A   1       8.507  20.230 -10.797  0.00  0.00    -0.086 C 
BRANCH   9  10
ATOM     10  NZ  LYS A   1       9.707  20.649 -11.562  0.00  0.00    +0.380 N 
ATOM     11  HZ1 LYS A   1      10.490  20.833 -10.903  0.00  0.00    -0.089 HD
ATOM     12  HZ2 LYS A   1       9.491  21.515 -12.096  0.00  0.00    -0.089 HD
ATOM     13  HZ3 LYS A   1       9.978  19.892 -12.221  0.00  0.00    -0.089 HD
ENDBRANCH   9  10
ENDBRANCH   8   9
ENDBRANCH   1   8
TORSDOF 7
REMARK  Name = ../refined-set-2016/3pb9/3pb9_pocket.pdb
REMARK  119 active torsions:
REMARK  status: ('A' for Active; 'I' for Inactive)
REMARK    1  A    between atoms: _1  and  _3
REMARK    2  A    between atoms: _3  and  _4
REMARK    3  A    between atoms: _3  and  _6
REMARK    4  A    between atoms: _6  and  _7
REMARK    5  A    between atoms: _12  and  _14
REMARK    6  A    between atoms: _14  and  _15
REMARK    7  A    between atoms: _14  and  _17
REMARK    8  A    between atoms: _17  and  _18
REMARK    9  A    between atoms: _18  and  _19
REMARK   10  A    between atoms: _19  and  _20
REMARK   11  A    between atoms: _20  and  _21
REMARK   12  A    between atoms: _25  and  _27
REMARK   13  A    between atoms: _27  and  _28
REMARK   14  A    between atoms: _27  and  _30
REMARK   15  A    between atoms: _30  and  _31
REMARK   16  A    between atoms: _37  and  _39
REMARK   17  A    between atoms: _39  and  _40
REMARK   18  A    between atoms: _39  and  _42
REMARK   19  A    between atoms: _42  and  _43
REMARK   20  A    between atoms: _46  and  _48
REMARK   21  A    between atoms: _48  and  _49
REMARK   22  A    between atoms: _48  and  _51
REMARK   23  A    between atoms: _51  and  _52
REMARK   24  A    between atoms: _52  and  _54
REMARK   25  A    between atoms: _54  and  ZN_284
REMARK   26  A    between atoms: _55  and  _57
REMARK   27  A    between atoms: _57  and  _58
REMARK   28  A    between atoms: _57  and  _60
REMARK   29  A    between atoms: _60  and  _61
REMARK   30  A    between atoms: _63  and  _65
REMARK   31  A    between atoms: _65  and  _66
REMARK   32  A    between atoms: _65  and  _68
REMARK   33  A    between atoms: _68  and  _69
REMARK   34  A    between atoms: _69  and  _70
REMARK   35  A    between atoms: _73  and  _75
REMARK   36  A    between atoms: _75  and  _76
REMARK   37  A    between atoms: _75  and  _78
REMARK   38  A    between atoms: _78  and  _79
REMARK   39  A    between atoms: _79  and  _80
REMARK   40  A    between atoms: _80  and  _82
REMARK   41  A    between atoms: _82  and  ZN_284
REMARK   42  A    between atoms: _83  and  _85
REMARK   43  A    between atoms: _85  and  _86
REMARK   44  A    between atoms: _89  and  _91
REMARK   45  A    between atoms: _91  and  _92
REMARK   46  A    between atoms: _91  and  _94
REMARK   47  A    between atoms: _94  and  _95
REMARK   48  A    between atoms: _105  and  _107
REMARK   49  A    between atoms: _107  and  _108
REMARK   50  A    between atoms: _110  and  _112
REMARK   51  A    between atoms: _112  and  _113
REMARK   52  A    between atoms: _112  and  _115
REMARK   53  A    between atoms: _115  and  _116
REMARK   54  A    between atoms: _118  and  _120
REMARK   55  A    between atoms: _120  and  _121
REMARK   56  A    between atoms: _120  and  _123
REMARK   57  A    between atoms: _123  and  _124
REMARK   58  A    between atoms: _127  and  _129
REMARK   59  A    between atoms: _129  and  _130
REMARK   60  A    between atoms: _129  and  _132
REMARK   61  A    between atoms: _132  and  _133
REMARK   62  A    between atoms: _136  and  _138
REMARK   63  A    between atoms: _138  and  _139
REMARK   64  A    between atoms: _138  and  _141
REMARK   65  A    between atoms: _141  and  _142
REMARK   66  A    between atoms: _145  and  _147
REMARK   67  A    between atoms: _147  and  _148
REMARK   68  A    between atoms: _147  and  _150
REMARK   69  A    between atoms: _150  and  _151
REMARK   70  A    between atoms: _154  and  _156
REMARK   71  A    between atoms: _156  and  _157
REMARK   72  A    between atoms: _156  and  _159
REMARK   73  A    between atoms: _159  and  _160
REMARK   74  A    between atoms: _163  and  _165
REMARK   75  A    between atoms: _165  and  _166
REMARK   76  A    between atoms: _165  and  _168
REMARK   77  A    between atoms: _168  and  _169
REMARK   78  A    between atoms: _171  and  _173
REMARK   79  A    between atoms: _173  and  _174
REMARK   80  A    between atoms: _173  and  _176
REMARK   81  A    between atoms: _179  and  _181
REMARK   82  A    between atoms: _181  and  _182
REMARK   83  A    between atoms: _181  and  _184
REMARK   84  A    between atoms: _184  and  _185
REMARK   85  A    between atoms: _185  and  _186
REMARK   86  A    between atoms: _189  and  _191
REMARK   87  A    between atoms: _191  and  _192
REMARK   88  A    between atoms: _191  and  _194
REMARK   89  A    between atoms: _194  and  _195
REMARK   90  A    between atoms: _198  and  _200
REMARK   91  A    between atoms: _200  and  _201
REMARK   92  A    between atoms: _200  and  _203
REMARK   93  A    between atoms: _203  and  _204
REMARK   94  A    between atoms: _207  and  _209
REMARK   95  A    between atoms: _209  and  _210
REMARK   96  A    between atoms: _209  and  _212
REMARK   97  A    between atoms: _212  and  _213
REMARK   98  A    between atoms: _218  and  _220
REMARK   99  A    between atoms: _220  and  _221
REMARK  100  A    between atoms: _220  and  _223
REMARK  101  A    between atoms: _223  and  _224
REMARK  102  A    between atoms: _229  and  _231
REMARK  103  A    between atoms: _231  and  _232
REMARK  104  A    between atoms: _231  and  _234
REMARK  105  A    between atoms: _234  and  _235
REMARK  106  A    between atoms: _238  and  _240
REMARK  107  A    between atoms: _240  and  _241
REMARK  108  A    between atoms: _240  and  _243
REMARK  109  A    between atoms: _243  and  _244
REMARK  110  A    between atoms: _251  and  _252
REMARK  111  A    between atoms: _257  and  _259
REMARK  112  A    between atoms: _259  and  _260
REMARK  113  A    between atoms: _259  and  _262
REMARK  114  A    between atoms: _262  and  _263
REMARK  115  A    between atoms: _273  and  _275
REMARK  116  A    between atoms: _275  and  _276
REMARK  117  A    between atoms: _275  and  _278
REMARK  118  A    between atoms: _278  and  _279
REMARK  119  A    between atoms: _283  and  ZN_284
REMARK                            x       y       z     vdW  Elec       q    Type
REMARK                         _______ _______ _______ _____ _____    ______ ____
ROOT
ATOM      1  CB  PHE A   1       6.737  18.627  -3.380  0.00  0.00    +0.051 C 
ENDROOT
BRANCH   1   2
ATOM      2  CG  PHE A   1       6.549  17.621  -4.463  0.00  0.00    -0.020 A 
ATOM      3  CD2 PHE A   1       5.248  17.353  -4.955  0.00  0.00    -0.004 A 
ATOM      4  CE2 PHE A   1       5.052  16.433  -5.966  0.00  0.00    -0.000 A 
ATOM      5  CZ  PHE A   1       6.151  15.723  -6.506  0.00  0.00    -0.000 A 
ATOM      6  CE1 PHE A   1       7.415  15.999  -6.011  0.00  0.00    -0.000 A 
ATOM      7  CD1 PHE A   1       7.615  16.909  -5.022  0.00  0.00    -0.004 A 
ENDBRANCH   1   2
BRANCH   1   8
ATOM      8  CA  PHE A   1       6.362  18.040  -2.020  0.00  0.00    +0.137 C 
BRANCH   8   9
ATOM      9  N   PHE A   1       6.555  19.041  -0.982  0.00  0.00    -0.239 NA
ATOM     10  H   PHE A   1       7.285  19.768  -1.125  0.00  0.00    +0.142 HD
ENDBRANCH   8   9
BRANCH   8  11
ATOM     11  C   PHE A   1       7.276  16.824  -1.690  0.00  0.00    +0.224 C 
ATOM     12  O   PHE A   1       8.504  16.947  -1.671  0.00  0.00    -0.287 OA
ENDBRANCH   8  11
ENDBRANCH   1   8
TORSDOF 4
REMARK  Name = ../refined-set-2016/3pb9/3pb9_pocket.pdb
REMARK  119 active torsions:
REMARK  status: ('A' for Active; 'I' for Inactive)
REMARK    1  A    between atoms: _1  and  _3
REMARK    2  A    between atoms: _3  and  _4
REMARK    3  A    between atoms: _3  and  _6
REMARK    4  A    between atoms: _6  and  _7
REMARK    5  A    between atoms: _12  and  _14
REMARK    6  A    between atoms: _14  and  _15
REMARK    7  A    between atoms: _14  and  _17
REMARK    8  A    between atoms: _17  and  _18
REMARK    9  A    between atoms: _18  and  _19
REMARK   10  A    between atoms: _19  and  _20
REMARK   11  A    between atoms: _20  and  _21
REMARK   12  A    between atoms: _25  and  _27
REMARK   13  A    between atoms: _27  and  _28
REMARK   14  A    between atoms: _27  and  _30
REMARK   15  A    between atoms: _30  and  _31
REMARK   16  A    between atoms: _37  and  _39
REMARK   17  A    between atoms: _39  and  _40
REMARK   18  A    between atoms: _39  and  _42
REMARK   19  A    between atoms: _42  and  _43
REMARK   20  A    between atoms: _46  and  _48
REMARK   21  A    between atoms: _48  and  _49
REMARK   22  A    between atoms: _48  and  _51
REMARK   23  A    between atoms: _51  and  _52
REMARK   24  A    between atoms: _52  and  _54
REMARK   25  A    between atoms: _54  and  ZN_284
REMARK   26  A    between atoms: _55  and  _57
REMARK   27  A    between atoms: _57  and  _58
REMARK   28  A    between atoms: _57  and  _60
REMARK   29  A    between atoms: _60  and  _61
REMARK   30  A    between atoms: _63  and  _65
REMARK   31  A    between atoms: _65  and  _66
REMARK   32  A    between atoms: _65  and  _68
REMARK   33  A    between atoms: _68  and  _69
REMARK   34  A    between atoms: _69  and  _70
REMARK   35  A    between atoms: _73  and  _75
REMARK   36  A    between atoms: _75  and  _76
REMARK   37  A    between atoms: _75  and  _78
REMARK   38  A    between atoms: _78  and  _79
REMARK   39  A    between atoms: _79  and  _80
REMARK   40  A    between atoms: _80  and  _82
REMARK   41  A    between atoms: _82  and  ZN_284
REMARK   42  A    between atoms: _83  and  _85
REMARK   43  A    between atoms: _85  and  _86
REMARK   44  A    between atoms: _89  and  _91
REMARK   45  A    between atoms: _91  and  _92
REMARK   46  A    between atoms: _91  and  _94
REMARK   47  A    between atoms: _94  and  _95
REMARK   48  A    between atoms: _105  and  _107
REMARK   49  A    between atoms: _107  and  _108
REMARK   50  A    between atoms: _110  and  _112
REMARK   51  A    between atoms: _112  and  _113
REMARK   52  A    between atoms: _112  and  _115
REMARK   53  A    between atoms: _115  and  _116
REMARK   54  A    between atoms: _118  and  _120
REMARK   55  A    between atoms: _120  and  _121
REMARK   56  A    between atoms: _120  and  _123
REMARK   57  A    between atoms: _123  and  _124
REMARK   58  A    between atoms: _127  and  _129
REMARK   59  A    between atoms: _129  and  _130
REMARK   60  A    between atoms: _129  and  _132
REMARK   61  A    between atoms: _132  and  _133
REMARK   62  A    between atoms: _136  and  _138
REMARK   63  A    between atoms: _138  and  _139
REMARK   64  A    between atoms: _138  and  _141
REMARK   65  A    between atoms: _141  and  _142
REMARK   66  A    between atoms: _145  and  _147
REMARK   67  A    between atoms: _147  and  _148
REMARK   68  A    between atoms: _147  and  _150
REMARK   69  A    between atoms: _150  and  _151
REMARK   70  A    between atoms: _154  and  _156
REMARK   71  A    between atoms: _156  and  _157
REMARK   72  A    between atoms: _156  and  _159
REMARK   73  A    between atoms: _159  and  _160
REMARK   74  A    between atoms: _163  and  _165
REMARK   75  A    between atoms: _165  and  _166
REMARK   76  A    between atoms: _165  and  _168
REMARK   77  A    between atoms: _168  and  _169
REMARK   78  A    between atoms: _171  and  _173
REMARK   79  A    between atoms: _173  and  _174
REMARK   80  A    between atoms: _173  and  _176
REMARK   81  A    between atoms: _179  and  _181
REMARK   82  A    between atoms: _181  and  _182
REMARK   83  A    between atoms: _181  and  _184
REMARK   84  A    between atoms: _184  and  _185
REMARK   85  A    between atoms: _185  and  _186
REMARK   86  A    between atoms: _189  and  _191
REMARK   87  A    between atoms: _191  and  _192
REMARK   88  A    between atoms: _191  and  _194
REMARK   89  A    between atoms: _194  and  _195
REMARK   90  A    between atoms: _198  and  _200
REMARK   91  A    between atoms: _200  and  _201
REMARK   92  A    between atoms: _200  and  _203
REMARK   93  A    between atoms: _203  and  _204
REMARK   94  A    between atoms: _207  and  _209
REMARK   95  A    between atoms: _209  and  _210
REMARK   96  A    between atoms: _209  and  _212
REMARK   97  A    between atoms: _212  and  _213
REMARK   98  A    between atoms: _218  and  _220
REMARK   99  A    between atoms: _220  and  _221
REMARK  100  A    between atoms: _220  and  _223
REMARK  101  A    between atoms: _223  and  _224
REMARK  102  A    between atoms: _229  and  _231
REMARK  103  A    between atoms: _231  and  _232
REMARK  104  A    between atoms: _231  and  _234
REMARK  105  A    between atoms: _234  and  _235
REMARK  106  A    between atoms: _238  and  _240
REMARK  107  A    between atoms: _240  and  _241
REMARK  108  A    between atoms: _240  and  _243
REMARK  109  A    between atoms: _243  and  _244
REMARK  110  A    between atoms: _251  and  _252
REMARK  111  A    between atoms: _257  and  _259
REMARK  112  A    between atoms: _259  and  _260
REMARK  113  A    between atoms: _259  and  _262
REMARK  114  A    between atoms: _262  and  _263
REMARK  115  A    between atoms: _273  and  _275
REMARK  116  A    between atoms: _275  and  _276
REMARK  117  A    between atoms: _275  and  _278
REMARK  118  A    between atoms: _278  and  _279
REMARK  119  A    between atoms: _283  and  ZN_284
REMARK                            x       y       z     vdW  Elec       q    Type
REMARK                         _______ _______ _______ _____ _____    ______ ____
ROOT
ATOM      1 ZN   UNK A   2       8.129  14.255 -11.257  0.00  0.00    +0.000 Zn
ENDROOT
BRANCH   1   2
ATOM      2  N   UNK A   2       7.116  15.960 -11.509  0.00  0.00    +0.000 N 
ATOM      3  C   UNK A   2       5.957  16.251 -10.768  0.00  0.00    +0.000 A 
ATOM      4  C   UNK A   2       5.400  17.394 -11.249  0.00  0.00    +0.000 A 
ATOM      5  N   UNK A   2       6.248  17.813 -12.225  0.00  0.00    +0.000 NA
ATOM      6  C   UNK A   2       7.247  16.940 -12.379  0.00  0.00    +0.000 A 
BRANCH   4   7
ATOM      7  C   UNK A   2       4.196  18.164 -10.824  0.00  0.00    +0.000 C 
BRANCH   7   8
ATOM      8  C   UNK A   2       3.617  17.617  -9.473  0.00  0.00    +0.000 C 
BRANCH   8   9
ATOM      9  N   UNK A   2       2.947  16.328  -9.630  0.00  0.00    +0.000 N 
ATOM     10  H   UNK A   2       3.416  15.480  -9.252  0.00  0.00    +0.000 HD
ATOM     11  C   TRP A   1       1.770  16.180 -10.230  0.00  0.00    +0.000 C 
ATOM     12  O   TRP A   1       1.100  17.134 -10.680  0.00  0.00    +0.000 OA
BRANCH  11  13
ATOM     13  CA  TRP A   1       1.292  14.771 -10.380  0.00  0.00    +0.000 C 
BRANCH  13  14
ATOM     14  N   TRP A   1      -0.076  14.563  -9.877  0.00  0.00    +0.000 NA
ATOM     15  H   TRP A   1      -0.775  14.096 -10.490  0.00  0.00    +0.000 HD
ENDBRANCH  13  14
BRANCH  13  16
ATOM     16  CB  TRP A   1       1.302  14.346 -11.842  0.00  0.00    +0.000 C 
BRANCH  16  17
ATOM     17  CG  TRP A   1       2.656  14.487 -12.490  0.00  0.00    +0.000 A 
ATOM     18  CD1 TRP A   1       3.706  13.599 -12.394  0.00  0.00    +0.000 A 
ATOM     19  NE1 TRP A   1       4.766  14.023 -13.163  0.00  0.00    +0.000 N 
ATOM     20  HE1 TRP A   1       5.685  13.543 -13.250  0.00  0.00    +0.000 HD
ATOM     21  CE2 TRP A   1       4.407  15.177 -13.790  0.00  0.00    +0.000 A 
ATOM     22  CZ2 TRP A   1       5.147  15.963 -14.684  0.00  0.00    +0.000 A 
ATOM     23  CH2 TRP A   1       4.562  17.064 -15.182  0.00  0.00    +0.000 A 
ATOM     24  CZ3 TRP A   1       3.214  17.453 -14.784  0.00  0.00    +0.000 A 
ATOM     25  CE3 TRP A   1       2.458  16.671 -13.894  0.00  0.00    +0.000 A 
ATOM     26  CD2 TRP A   1       3.067  15.506 -13.401  0.00  0.00    +0.000 A 
ENDBRANCH  16  17
ENDBRANCH  13  16
ENDBRANCH  11  13
ENDBRANCH   8   9
BRANCH   8  27
ATOM     27  C   UNK A   2       2.726  18.627  -8.767  0.00  0.00    +0.000 C 
ATOM     28  O   UNK A   2       2.886  19.832  -8.968  0.00  0.00    +0.000 OA
ENDBRANCH   8  27
ENDBRANCH   7   8
ENDBRANCH   4   7
ENDBRANCH   1   2
BRANCH   1  29
ATOM     29  O   UNK A   2       9.803  14.442 -10.273  0.00  0.00    +0.000 OA
BRANCH  29  30
ATOM     30  C   UNK A   2      10.663  15.265 -10.776  0.00  0.00    +0.000 C 
ATOM     31  O   UNK A   2      10.375  15.923 -11.791  0.00  0.00    +0.000 OA
BRANCH  30  32
ATOM     32  C   UNK A   2      11.979  15.309 -10.118  0.00  0.00    +0.000 C 
BRANCH  32  33
ATOM     33  C   UNK A   2      12.893  16.493 -10.461  0.00  0.00    +0.000 C 
BRANCH  33  34
ATOM     34  C   UNK A   2      13.662  16.246 -11.742  0.00  0.00    +0.000 C 
BRANCH  34  35
ATOM     35  C   UNK A   2      14.461  17.501 -12.078  0.00  0.00    +0.000 C 
ATOM     36  O   UNK A   2      15.593  17.738 -11.599  0.00  0.00    +0.000 OA
ATOM     37  N   ALA A   3      13.827  18.394 -12.825  0.00  0.00    +0.000 N 
ATOM     38  H   ALA A   3      12.914  18.140 -13.253  0.00  0.00    +0.000 HD
BRANCH  37  39
ATOM     39  CA  ALA A   3      14.387  19.744 -13.065  0.00  0.00    +0.000 C 
ATOM     40  CB  ALA A   3      13.450  20.501 -13.971  0.00  0.00    +0.000 C 
BRANCH  39  41
ATOM     41  C   ALA A   3      14.471  20.447 -11.683  0.00  0.00    +0.000 C 
ATOM     42  O   ALA A   3      13.558  20.341 -10.859  0.00  0.00    +0.000 OA
ENDBRANCH  39  41
ENDBRANCH  37  39
ENDBRANCH  34  35
BRANCH  34  43
ATOM     43  N   UNK A   2      14.585  15.118 -11.547  0.00  0.00    +0.000 N 
ATOM     44  H   UNK A   2      14.847  14.830 -10.583  0.00  0.00    +0.000 HD
ATOM     45  C   TRP A   1      15.089  14.461 -12.590  0.00  0.00    +0.000 C 
ATOM     46  O   TRP A   1      14.965  14.842 -13.763  0.00  0.00    +0.000 OA
BRANCH  45  47
ATOM     47  CA  TRP A   1      15.808  13.162 -12.303  0.00  0.00    +0.000 C 
BRANCH  47  48
ATOM     48  N   TRP A   1      16.636  13.291 -11.092  0.00  0.00    +0.000 NA
ATOM     49  H   TRP A   1      16.429  12.725 -10.244  0.00  0.00    +0.000 HD
ENDBRANCH  47  48
BRANCH  47  50
ATOM     50  CB  TRP A   1      14.807  12.018 -12.097  0.00  0.00    +0.000 C 
BRANCH  50  51
ATOM     51  CG  TRP A   1      13.943  11.639 -13.273  0.00  0.00    +0.000 C 
BRANCH  51  52
ATOM     52  CD  TRP A   1      12.669  12.422 -13.444  0.00  0.00    +0.000 C 
ATOM     53  OE2 TRP A   1      12.326  13.291 -12.662  0.00  0.00    +0.000 OA
ATOM     54  OE1 TRP A   1      11.889  12.046 -14.432  0.00  0.00    +0.000 OA
ENDBRANCH  51  52
ENDBRANCH  50  51
ENDBRANCH  47  50
ENDBRANCH  45  47
ENDBRANCH  34  43
ENDBRANCH  33  34
ENDBRANCH  32  33
ENDBRANCH  30  32
ENDBRANCH  29  30
ENDBRANCH   1  29
BRANCH   1  55
ATOM     55  O   UNK A   2       6.846  13.321 -10.060  0.00  0.00    +0.000 OA
BRANCH  55  56
ATOM     56  C   UNK A   2       7.309  12.190  -9.673  0.00  0.00    +0.000 C 
ATOM     57  O   UNK A   2       8.333  11.677 -10.143  0.00  0.00    +0.000 OA
BRANCH  56  58
ATOM     58  C   UNK A   2       6.486  11.483  -8.627  0.00  0.00    +0.000 C 
BRANCH  58  59
ATOM     59  C   UNK A   2       7.119  10.190  -8.077  0.00  0.00    +0.000 C 
BRANCH  59  60
ATOM     60  C   UNK A   2       8.360  10.531  -7.285  0.00  0.00    +0.000 C 
ATOM     61  N   ALA A   3       9.131   9.516  -6.850  0.00  0.00    +0.000 N 
ATOM     62  H   ALA A   3       9.926   9.781  -6.234  0.00  0.00    +0.000 HD
ATOM     63  O   UNK A   2       8.648  11.689  -7.022  0.00  0.00    +0.000 OA
BRANCH  61  64
ATOM     64  CA  ALA A   3       8.992   8.096  -7.134  0.00  0.00    +0.000 C 
BRANCH  64  65
ATOM     65  CB  ALA A   3       9.231   7.303  -5.866  0.00  0.00    +0.000 C 
ATOM     66  O   ALA A   3       9.916   6.259  -5.912  0.00  0.00    +0.000 OA
ENDBRANCH  64  65
BRANCH  64  67
ATOM     67  C   ALA A   3       9.889   7.665  -8.283  0.00  0.00    +0.000 C 
BRANCH  67  68
ATOM     68  O   ALA A   3       9.246   8.071  -9.467  0.00  0.00    +0.000 OA
ATOM     69  H   ALA A   3       9.797   7.810 -10.247  0.00  0.00    +0.000 HD
ENDBRANCH  67  68
ENDBRANCH  64  67
ENDBRANCH  61  64
ENDBRANCH  59  60
BRANCH  59  71
ATOM     70  C   TRP A   1       5.413   8.499  -7.510  0.00  0.00    +0.000 C 
ATOM     71  N   UNK A   2       6.155   9.552  -7.187  0.00  0.00    +0.000 N 
ATOM     72  H   UNK A   2       6.041   9.950  -6.233  0.00  0.00    +0.000 HD
ATOM     73  O   TRP A   1       5.683   7.719  -8.433  0.00  0.00    +0.000 OA
BRANCH  70  74
ATOM     74  CA  TRP A   1       4.124   8.291  -6.717  0.00  0.00    +0.000 C 
BRANCH  74  75
ATOM     75  N   TRP A   1       4.116   9.101  -5.479  0.00  0.00    +0.000 NA
ATOM     76  H   TRP A   1       3.565   9.983  -5.453  0.00  0.00    +0.000 HD
ENDBRANCH  74  75
BRANCH  74  77
ATOM     77  CB  TRP A   1       2.954   8.605  -7.631  0.00  0.00    +0.000 C 
ATOM     78  CG2 TRP A   1       1.587   8.463  -7.006  0.00  0.00    +0.000 C 
BRANCH  77  79
ATOM     79  OG1 TRP A   1       3.099   9.905  -8.215  0.00  0.00    +0.000 OA
ATOM     80  HG1 TRP A   1       3.135  10.586  -7.497  0.00  0.00    +0.000 HD
ENDBRANCH  77  79
ENDBRANCH  74  77
ENDBRANCH  70  74
ENDBRANCH  59  71
ENDBRANCH  58  59
ENDBRANCH  56  58
ENDBRANCH  55  56
ENDBRANCH   1  55
TORSDOF 37
REMARK  Name = ../refined-set-2016/3pb9/3pb9_pocket.pdb
REMARK  119 active torsions:
REMARK  status: ('A' for Active; 'I' for Inactive)
REMARK    1  A    between atoms: _1  and  _3
REMARK    2  A    between atoms: _3  and  _4
REMARK    3  A    between atoms: _3  and  _6
REMARK    4  A    between atoms: _6  and  _7
REMARK    5  A    between atoms: _12  and  _14
REMARK    6  A    between atoms: _14  and  _15
REMARK    7  A    between atoms: _14  and  _17
REMARK    8  A    between atoms: _17  and  _18
REMARK    9  A    between atoms: _18  and  _19
REMARK   10  A    between atoms: _19  and  _20
REMARK   11  A    between atoms: _20  and  _21
REMARK   12  A    between atoms: _25  and  _27
REMARK   13  A    between atoms: _27  and  _28
REMARK   14  A    between atoms: _27  and  _30
REMARK   15  A    between atoms: _30  and  _31
REMARK   16  A    between atoms: _37  and  _39
REMARK   17  A    between atoms: _39  and  _40
REMARK   18  A    between atoms: _39  and  _42
REMARK   19  A    between atoms: _42  and  _43
REMARK   20  A    between atoms: _46  and  _48
REMARK   21  A    between atoms: _48  and  _49
REMARK   22  A    between atoms: _48  and  _51
REMARK   23  A    between atoms: _51  and  _52
REMARK   24  A    between atoms: _52  and  _54
REMARK   25  A    between atoms: _54  and  ZN_284
REMARK   26  A    between atoms: _55  and  _57
REMARK   27  A    between atoms: _57  and  _58
REMARK   28  A    between atoms: _57  and  _60
REMARK   29  A    between atoms: _60  and  _61
REMARK   30  A    between atoms: _63  and  _65
REMARK   31  A    between atoms: _65  and  _66
REMARK   32  A    between atoms: _65  and  _68
REMARK   33  A    between atoms: _68  and  _69
REMARK   34  A    between atoms: _69  and  _70
REMARK   35  A    between atoms: _73  and  _75
REMARK   36  A    between atoms: _75  and  _76
REMARK   37  A    between atoms: _75  and  _78
REMARK   38  A    between atoms: _78  and  _79
REMARK   39  A    between atoms: _79  and  _80
REMARK   40  A    between atoms: _80  and  _82
REMARK   41  A    between atoms: _82  and  ZN_284
REMARK   42  A    between atoms: _83  and  _85
REMARK   43  A    between atoms: _85  and  _86
REMARK   44  A    between atoms: _89  and  _91
REMARK   45  A    between atoms: _91  and  _92
REMARK   46  A    between atoms: _91  and  _94
REMARK   47  A    between atoms: _94  and  _95
REMARK   48  A    between atoms: _105  and  _107
REMARK   49  A    between atoms: _107  and  _108
REMARK   50  A    between atoms: _110  and  _112
REMARK   51  A    between atoms: _112  and  _113
REMARK   52  A    between atoms: _112  and  _115
REMARK   53  A    between atoms: _115  and  _116
REMARK   54  A    between atoms: _118  and  _120
REMARK   55  A    between atoms: _120  and  _121
REMARK   56  A    between atoms: _120  and  _123
REMARK   57  A    between atoms: _123  and  _124
REMARK   58  A    between atoms: _127  and  _129
REMARK   59  A    between atoms: _129  and  _130
REMARK   60  A    between atoms: _129  and  _132
REMARK   61  A    between atoms: _132  and  _133
REMARK   62  A    between atoms: _136  and  _138
REMARK   63  A    between atoms: _138  and  _139
REMARK   64  A    between atoms: _138  and  _141
REMARK   65  A    between atoms: _141  and  _142
REMARK   66  A    between atoms: _145  and  _147
REMARK   67  A    between atoms: _147  and  _148
REMARK   68  A    between atoms: _147  and  _150
REMARK   69  A    between atoms: _150  and  _151
REMARK   70  A    between atoms: _154  and  _156
REMARK   71  A    between atoms: _156  and  _157
REMARK   72  A    between atoms: _156  and  _159
REMARK   73  A    between atoms: _159  and  _160
REMARK   74  A    between atoms: _163  and  _165
REMARK   75  A    between atoms: _165  and  _166
REMARK   76  A    between atoms: _165  and  _168
REMARK   77  A    between atoms: _168  and  _169
REMARK   78  A    between atoms: _171  and  _173
REMARK   79  A    between atoms: _173  and  _174
REMARK   80  A    between atoms: _173  and  _176
REMARK   81  A    between atoms: _179  and  _181
REMARK   82  A    between atoms: _181  and  _182
REMARK   83  A    between atoms: _181  and  _184
REMARK   84  A    between atoms: _184  and  _185
REMARK   85  A    between atoms: _185  and  _186
REMARK   86  A    between atoms: _189  and  _191
REMARK   87  A    between atoms: _191  and  _192
REMARK   88  A    between atoms: _191  and  _194
REMARK   89  A    between atoms: _194  and  _195
REMARK   90  A    between atoms: _198  and  _200
REMARK   91  A    between atoms: _200  and  _201
REMARK   92  A    between atoms: _200  and  _203
REMARK   93  A    between atoms: _203  and  _204
REMARK   94  A    between atoms: _207  and  _209
REMARK   95  A    between atoms: _209  and  _210
REMARK   96  A    between atoms: _209  and  _212
REMARK   97  A    between atoms: _212  and  _213
REMARK   98  A    between atoms: _218  and  _220
REMARK   99  A    between atoms: _220  and  _221
REMARK  100  A    between atoms: _220  and  _223
REMARK  101  A    between atoms: _223  and  _224
REMARK  102  A    between atoms: _229  and  _231
REMARK  103  A    between atoms: _231  and  _232
REMARK  104  A    between atoms: _231  and  _234
REMARK  105  A    between atoms: _234  and  _235
REMARK  106  A    between atoms: _238  and  _240
REMARK  107  A    between atoms: _240  and  _241
REMARK  108  A    between atoms: _240  and  _243
REMARK  109  A    between atoms: _243  and  _244
REMARK  110  A    between atoms: _251  and  _252
REMARK  111  A    between atoms: _257  and  _259
REMARK  112  A    between atoms: _259  and  _260
REMARK  113  A    between atoms: _259  and  _262
REMARK  114  A    between atoms: _262  and  _263
REMARK  115  A    between atoms: _273  and  _275
REMARK  116  A    between atoms: _275  and  _276
REMARK  117  A    between atoms: _275  and  _278
REMARK  118  A    between atoms: _278  and  _279
REMARK  119  A    between atoms: _283  and  ZN_284
REMARK                            x       y       z     vdW  Elec       q    Type
REMARK                         _______ _______ _______ _____ _____    ______ ____
ROOT
ATOM      1  CB  TRP A   1      11.346  19.955 -17.777  0.00  0.00    +0.054 C 
ENDROOT
BRANCH   1   2
ATOM      2  CG  TRP A   1      11.729  18.620 -18.324  0.00  0.00    -0.002 A 
ATOM      3  CD2 TRP A   1      12.069  17.431 -17.563  0.00  0.00    +0.013 A 
ATOM      4  CE3 TRP A   1      12.039  17.108 -16.153  0.00  0.00    +0.001 A 
ATOM      5  CZ3 TRP A   1      12.510  15.696 -15.658  0.00  0.00    +0.000 A 
ATOM      6  CH2 TRP A   1      12.758  14.717 -16.692  0.00  0.00    +0.001 A 
ATOM      7  CZ2 TRP A   1      12.763  15.002 -18.079  0.00  0.00    +0.017 A 
ATOM      8  CE2 TRP A   1      12.403  16.397 -18.520  0.00  0.00    +0.056 A 
ATOM      9  NE1 TRP A   1      12.296  16.967 -19.786  0.00  0.00    -0.352 N 
ATOM     10  HE1 TRP A   1      12.493  16.481 -20.684  0.00  0.00    +0.166 HD
ATOM     11  CD1 TRP A   1      11.883  18.290 -19.659  0.00  0.00    +0.068 A 
ENDBRANCH   1   2
BRANCH   1  12
ATOM     12  CA  TRP A   1      12.495  20.946 -17.736  0.00  0.00    +0.149 C 
BRANCH  12  13
ATOM     13  C   TRP A   1      13.085  21.214 -19.184  0.00  0.00    +0.239 C 
ATOM     14  N   GLY A   2      14.251  20.637 -19.427  0.00  0.00    -0.297 N 
ATOM     15  H   GLY A   2      14.717  20.094 -18.672  0.00  0.00    +0.150 HD
ATOM     16  O   TRP A   1      12.527  21.947 -20.045  0.00  0.00    -0.274 OA
BRANCH  14  17
ATOM     17  CA  GLY A   2      14.876  20.742 -20.686  0.00  0.00    +0.163 C 
BRANCH  17  18
ATOM     18  C   GLY A   2      16.027  19.786 -20.680  0.00  0.00    +0.229 C 
ATOM     19  O   GLY A   2      16.419  19.254 -19.625  0.00  0.00    -0.286 OA
ENDBRANCH  17  18
ENDBRANCH  14  17
ENDBRANCH  12  13
BRANCH  12  20
ATOM     20  N   TRP A   1      12.077  22.197 -16.998  0.00  0.00    -0.238 NA
ATOM     21  H   TRP A   1      11.065  22.380 -16.843  0.00  0.00    +0.142 HD
ENDBRANCH  12  20
ENDBRANCH   1  12
TORSDOF 6
REMARK  Name = ../refined-set-2016/3pb9/3pb9_pocket.pdb
REMARK  119 active torsions:
REMARK  status: ('A' for Active; 'I' for Inactive)
REMARK    1  A    between atoms: _1  and  _3
REMARK    2  A    between atoms: _3  and  _4
REMARK    3  A    between atoms: _3  and  _6
REMARK    4  A    between atoms: _6  and  _7
REMARK    5  A    between atoms: _12  and  _14
REMARK    6  A    between atoms: _14  and  _15
REMARK    7  A    between atoms: _14  and  _17
REMARK    8  A    between atoms: _17  and  _18
REMARK    9  A    between atoms: _18  and  _19
REMARK   10  A    between atoms: _19  and  _20
REMARK   11  A    between atoms: _20  and  _21
REMARK   12  A    between atoms: _25  and  _27
REMARK   13  A    between atoms: _27  and  _28
REMARK   14  A    between atoms: _27  and  _30
REMARK   15  A    between atoms: _30  and  _31
REMARK   16  A    between atoms: _37  and  _39
REMARK   17  A    between atoms: _39  and  _40
REMARK   18  A    between atoms: _39  and  _42
REMARK   19  A    between atoms: _42  and  _43
REMARK   20  A    between atoms: _46  and  _48
REMARK   21  A    between atoms: _48  and  _49
REMARK   22  A    between atoms: _48  and  _51
REMARK   23  A    between atoms: _51  and  _52
REMARK   24  A    between atoms: _52  and  _54
REMARK   25  A    between atoms: _54  and  ZN_284
REMARK   26  A    between atoms: _55  and  _57
REMARK   27  A    between atoms: _57  and  _58
REMARK   28  A    between atoms: _57  and  _60
REMARK   29  A    between atoms: _60  and  _61
REMARK   30  A    between atoms: _63  and  _65
REMARK   31  A    between atoms: _65  and  _66
REMARK   32  A    between atoms: _65  and  _68
REMARK   33  A    between atoms: _68  and  _69
REMARK   34  A    between atoms: _69  and  _70
REMARK   35  A    between atoms: _73  and  _75
REMARK   36  A    between atoms: _75  and  _76
REMARK   37  A    between atoms: _75  and  _78
REMARK   38  A    between atoms: _78  and  _79
REMARK   39  A    between atoms: _79  and  _80
REMARK   40  A    between atoms: _80  and  _82
REMARK   41  A    between atoms: _82  and  ZN_284
REMARK   42  A    between atoms: _83  and  _85
REMARK   43  A    between atoms: _85  and  _86
REMARK   44  A    between atoms: _89  and  _91
REMARK   45  A    between atoms: _91  and  _92
REMARK   46  A    between atoms: _91  and  _94
REMARK   47  A    between atoms: _94  and  _95
REMARK   48  A    between atoms: _105  and  _107
REMARK   49  A    between atoms: _107  and  _108
REMARK   50  A    between atoms: _110  and  _112
REMARK   51  A    between atoms: _112  and  _113
REMARK   52  A    between atoms: _112  and  _115
REMARK   53  A    between atoms: _115  and  _116
REMARK   54  A    between atoms: _118  and  _120
REMARK   55  A    between atoms: _120  and  _121
REMARK   56  A    between atoms: _120  and  _123
REMARK   57  A    between atoms: _123  and  _124
REMARK   58  A    between atoms: _127  and  _129
REMARK   59  A    between atoms: _129  and  _130
REMARK   60  A    between atoms: _129  and  _132
REMARK   61  A    between atoms: _132  and  _133
REMARK   62  A    between atoms: _136  and  _138
REMARK   63  A    between atoms: _138  and  _139
REMARK   64  A    between atoms: _138  and  _141
REMARK   65  A    between atoms: _141  and  _142
REMARK   66  A    between atoms: _145  and  _147
REMARK   67  A    between atoms: _147  and  _148
REMARK   68  A    between atoms: _147  and  _150
REMARK   69  A    between atoms: _150  and  _151
REMARK   70  A    between atoms: _154  and  _156
REMARK   71  A    between atoms: _156  and  _157
REMARK   72  A    between atoms: _156  and  _159
REMARK   73  A    between atoms: _159  and  _160
REMARK   74  A    between atoms: _163  and  _165
REMARK   75  A    between atoms: _165  and  _166
REMARK   76  A    between atoms: _165  and  _168
REMARK   77  A    between atoms: _168  and  _169
REMARK   78  A    between atoms: _171  and  _173
REMARK   79  A    between atoms: _173  and  _174
REMARK   80  A    between atoms: _173  and  _176
REMARK   81  A    between atoms: _179  and  _181
REMARK   82  A    between atoms: _181  and  _182
REMARK   83  A    between atoms: _181  and  _184
REMARK   84  A    between atoms: _184  and  _185
REMARK   85  A    between atoms: _185  and  _186
REMARK   86  A    between atoms: _189  and  _191
REMARK   87  A    between atoms: _191  and  _192
REMARK   88  A    between atoms: _191  and  _194
REMARK   89  A    between atoms: _194  and  _195
REMARK   90  A    between atoms: _198  and  _200
REMARK   91  A    between atoms: _200  and  _201
REMARK   92  A    between atoms: _200  and  _203
REMARK   93  A    between atoms: _203  and  _204
REMARK   94  A    between atoms: _207  and  _209
REMARK   95  A    between atoms: _209  and  _210
REMARK   96  A    between atoms: _209  and  _212
REMARK   97  A    between atoms: _212  and  _213
REMARK   98  A    between atoms: _218  and  _220
REMARK   99  A    between atoms: _220  and  _221
REMARK  100  A    between atoms: _220  and  _223
REMARK  101  A    between atoms: _223  and  _224
REMARK  102  A    between atoms: _229  and  _231
REMARK  103  A    between atoms: _231  and  _232
REMARK  104  A    between atoms: _231  and  _234
REMARK  105  A    between atoms: _234  and  _235
REMARK  106  A    between atoms: _238  and  _240
REMARK  107  A    between atoms: _240  and  _241
REMARK  108  A    between atoms: _240  and  _243
REMARK  109  A    between atoms: _243  and  _244
REMARK  110  A    between atoms: _251  and  _252
REMARK  111  A    between atoms: _257  and  _259
REMARK  112  A    between atoms: _259  and  _260
REMARK  113  A    between atoms: _259  and  _262
REMARK  114  A    between atoms: _262  and  _263
REMARK  115  A    between atoms: _273  and  _275
REMARK  116  A    between atoms: _275  and  _276
REMARK  117  A    between atoms: _275  and  _278
REMARK  118  A    between atoms: _278  and  _279
REMARK  119  A    between atoms: _283  and  ZN_284
REMARK                            x       y       z     vdW  Elec       q    Type
REMARK                         _______ _______ _______ _____ _____    ______ ____
ROOT
ATOM      1  C   SER A   1      17.788  16.230 -15.897  0.00  0.00    +0.241 C 
ATOM      2  N   LEU A   2      17.432  15.071 -15.358  0.00  0.00    -0.298 N 
ATOM      3  H   LEU A   2      16.618  15.046 -14.711  0.00  0.00    +0.150 HD
ATOM      4  O   SER A   1      18.857  16.386 -16.495  0.00  0.00    -0.274 OA
ENDROOT
BRANCH   1   5
ATOM      5  CA  SER A   1      16.803  17.367 -15.750  0.00  0.00    +0.174 C 
BRANCH   5   6
ATOM      6  N   SER A   1      17.563  18.622 -15.940  0.00  0.00    -0.236 NA
ATOM      7  H   SER A   1      18.588  18.551 -16.099  0.00  0.00    +0.142 HD
ENDBRANCH   5   6
BRANCH   5   8
ATOM      8  CB  SER A   1      15.646  17.127 -16.829  0.00  0.00    +0.163 C 
BRANCH   8   9
ATOM      9  OG  SER A   1      16.179  16.977 -18.153  0.00  0.00    -0.380 OA
ATOM     10  H   SER A   1      16.674  17.797 -18.403  0.00  0.00    +0.211 HD
ENDBRANCH   8   9
ENDBRANCH   5   8
ENDBRANCH   1   5
BRANCH   2  11
ATOM     11  CA  LEU A   2      18.151  13.819 -15.646  0.00  0.00    +0.137 C 
BRANCH  11  12
ATOM     12  C   LEU A   2      19.584  13.949 -15.278  0.00  0.00    +0.227 C 
ATOM     13  O   LEU A   2      20.489  13.357 -15.947  0.00  0.00    -0.286 OA
ENDBRANCH  11  12
BRANCH  11  14
ATOM     14  CB  LEU A   2      18.006  13.316 -17.119  0.00  0.00    +0.028 C 
BRANCH  14  15
ATOM     15  CG  LEU A   2      16.558  13.333 -17.639  0.00  0.00    +0.002 C 
ATOM     16  CD2 LEU A   2      15.621  12.559 -16.752  0.00  0.00    +0.000 C 
ATOM     17  CD1 LEU A   2      16.569  12.722 -19.055  0.00  0.00    +0.000 C 
ENDBRANCH  14  15
ENDBRANCH  11  14
ENDBRANCH   2  11
TORSDOF 8
REMARK  Name = ../refined-set-2016/3pb9/3pb9_pocket.pdb
REMARK  119 active torsions:
REMARK  status: ('A' for Active; 'I' for Inactive)
REMARK    1  A    between atoms: _1  and  _3
REMARK    2  A    between atoms: _3  and  _4
REMARK    3  A    between atoms: _3  and  _6
REMARK    4  A    between atoms: _6  and  _7
REMARK    5  A    between atoms: _12  and  _14
REMARK    6  A    between atoms: _14  and  _15
REMARK    7  A    between atoms: _14  and  _17
REMARK    8  A    between atoms: _17  and  _18
REMARK    9  A    between atoms: _18  and  _19
REMARK   10  A    between atoms: _19  and  _20
REMARK   11  A    between atoms: _20  and  _21
REMARK   12  A    between atoms: _25  and  _27
REMARK   13  A    between atoms: _27  and  _28
REMARK   14  A    between atoms: _27  and  _30
REMARK   15  A    between atoms: _30  and  _31
REMARK   16  A    between atoms: _37  and  _39
REMARK   17  A    between atoms: _39  and  _40
REMARK   18  A    between atoms: _39  and  _42
REMARK   19  A    between atoms: _42  and  _43
REMARK   20  A    between atoms: _46  and  _48
REMARK   21  A    between atoms: _48  and  _49
REMARK   22  A    between atoms: _48  and  _51
REMARK   23  A    between atoms: _51  and  _52
REMARK   24  A    between atoms: _52  and  _54
REMARK   25  A    between atoms: _54  and  ZN_284
REMARK   26  A    between atoms: _55  and  _57
REMARK   27  A    between atoms: _57  and  _58
REMARK   28  A    between atoms: _57  and  _60
REMARK   29  A    between atoms: _60  and  _61
REMARK   30  A    between atoms: _63  and  _65
REMARK   31  A    between atoms: _65  and  _66
REMARK   32  A    between atoms: _65  and  _68
REMARK   33  A    between atoms: _68  and  _69
REMARK   34  A    between atoms: _69  and  _70
REMARK   35  A    between atoms: _73  and  _75
REMARK   36  A    between atoms: _75  and  _76
REMARK   37  A    between atoms: _75  and  _78
REMARK   38  A    between atoms: _78  and  _79
REMARK   39  A    between atoms: _79  and  _80
REMARK   40  A    between atoms: _80  and  _82
REMARK   41  A    between atoms: _82  and  ZN_284
REMARK   42  A    between atoms: _83  and  _85
REMARK   43  A    between atoms: _85  and  _86
REMARK   44  A    between atoms: _89  and  _91
REMARK   45  A    between atoms: _91  and  _92
REMARK   46  A    between atoms: _91  and  _94
REMARK   47  A    between atoms: _94  and  _95
REMARK   48  A    between atoms: _105  and  _107
REMARK   49  A    between atoms: _107  and  _108
REMARK   50  A    between atoms: _110  and  _112
REMARK   51  A    between atoms: _112  and  _113
REMARK   52  A    between atoms: _112  and  _115
REMARK   53  A    between atoms: _115  and  _116
REMARK   54  A    between atoms: _118  and  _120
REMARK   55  A    between atoms: _120  and  _121
REMARK   56  A    between atoms: _120  and  _123
REMARK   57  A    between atoms: _123  and  _124
REMARK   58  A    between atoms: _127  and  _129
REMARK   59  A    between atoms: _129  and  _130
REMARK   60  A    between atoms: _129  and  _132
REMARK   61  A    between atoms: _132  and  _133
REMARK   62  A    between atoms: _136  and  _138
REMARK   63  A    between atoms: _138  and  _139
REMARK   64  A    between atoms: _138  and  _141
REMARK   65  A    between atoms: _141  and  _142
REMARK   66  A    between atoms: _145  and  _147
REMARK   67  A    between atoms: _147  and  _148
REMARK   68  A    between atoms: _147  and  _150
REMARK   69  A    between atoms: _150  and  _151
REMARK   70  A    between atoms: _154  and  _156
REMARK   71  A    between atoms: _156  and  _157
REMARK   72  A    between atoms: _156  and  _159
REMARK   73  A    between atoms: _159  and  _160
REMARK   74  A    between atoms: _163  and  _165
REMARK   75  A    between atoms: _165  and  _166
REMARK   76  A    between atoms: _165  and  _168
REMARK   77  A    between atoms: _168  and  _169
REMARK   78  A    between atoms: _171  and  _173
REMARK   79  A    between atoms: _173  and  _174
REMARK   80  A    between atoms: _173  and  _176
REMARK   81  A    between atoms: _179  and  _181
REMARK   82  A    between atoms: _181  and  _182
REMARK   83  A    between atoms: _181  and  _184
REMARK   84  A    between atoms: _184  and  _185
REMARK   85  A    between atoms: _185  and  _186
REMARK   86  A    between atoms: _189  and  _191
REMARK   87  A    between atoms: _191  and  _192
REMARK   88  A    between atoms: _191  and  _194
REMARK   89  A    between atoms: _194  and  _195
REMARK   90  A    between atoms: _198  and  _200
REMARK   91  A    between atoms: _200  and  _201
REMARK   92  A    between atoms: _200  and  _203
REMARK   93  A    between atoms: _203  and  _204
REMARK   94  A    between atoms: _207  and  _209
REMARK   95  A    between atoms: _209  and  _210
REMARK   96  A    between atoms: _209  and  _212
REMARK   97  A    between atoms: _212  and  _213
REMARK   98  A    between atoms: _218  and  _220
REMARK   99  A    between atoms: _220  and  _221
REMARK  100  A    between atoms: _220  and  _223
REMARK  101  A    between atoms: _223  and  _224
REMARK  102  A    between atoms: _229  and  _231
REMARK  103  A    between atoms: _231  and  _232
REMARK  104  A    between atoms: _231  and  _234
REMARK  105  A    between atoms: _234  and  _235
REMARK  106  A    between atoms: _238  and  _240
REMARK  107  A    between atoms: _240  and  _241
REMARK  108  A    between atoms: _240  and  _243
REMARK  109  A    between atoms: _243  and  _244
REMARK  110  A    between atoms: _251  and  _252
REMARK  111  A    between atoms: _257  and  _259
REMARK  112  A    between atoms: _259  and  _260
REMARK  113  A    between atoms: _259  and  _262
REMARK  114  A    between atoms: _262  and  _263
REMARK  115  A    between atoms: _273  and  _275
REMARK  116  A    between atoms: _275  and  _276
REMARK  117  A    between atoms: _275  and  _278
REMARK  118  A    between atoms: _278  and  _279
REMARK  119  A    between atoms: _283  and  ZN_284
REMARK                            x       y       z     vdW  Elec       q    Type
REMARK                         _______ _______ _______ _____ _____    ______ ____
ROOT
ATOM      1  C   LEU A   2       9.354   3.889 -12.516  0.00  0.00    +0.241 C 
ATOM      2  O   LEU A   2      10.273   4.454 -11.887  0.00  0.00    -0.273 OA
ATOM      3  N   ASP A   3       8.213   4.491 -12.832  0.00  0.00    -0.297 N 
ATOM      4  H   ASP A   3       7.475   3.964 -13.341  0.00  0.00    +0.150 HD
ENDROOT
BRANCH   3   5
ATOM      5  CA  ASP A   3       7.987   5.889 -12.469  0.00  0.00    +0.160 C 
BRANCH   5   6
ATOM      6  C   ASP A   3       6.509   6.136 -12.342  0.00  0.00    +0.241 C 
ATOM      7  N   LEU A   4       6.088   7.012 -11.456  0.00  0.00    -0.298 N 
ATOM      8  H   LEU A   4       6.773   7.414 -10.784  0.00  0.00    +0.150 HD
ATOM      9  O   ASP A   3       5.722   5.501 -13.097  0.00  0.00    -0.273 OA
BRANCH   7  10
ATOM     10  CA  LEU A   4       4.702   7.438 -11.382  0.00  0.00    +0.137 C 
BRANCH  10  11
ATOM     11  C   LEU A   4       3.775   6.261 -11.081  0.00  0.00    +0.227 C 
ATOM     12  O   LEU A   4       2.815   6.000 -11.846  0.00  0.00    -0.286 OA
ENDBRANCH  10  11
BRANCH  10  13
ATOM     13  CB  LEU A   4       4.227   8.238 -12.599  0.00  0.00    +0.028 C 
BRANCH  13  14
ATOM     14  CG  LEU A   4       5.094   9.427 -12.978  0.00  0.00    +0.002 C 
ATOM     15  CD2 LEU A   4       5.358  10.324 -11.763  0.00  0.00    +0.000 C 
ATOM     16  CD1 LEU A   4       4.469  10.209 -14.072  0.00  0.00    +0.000 C 
ENDBRANCH  13  14
ENDBRANCH  10  13
ENDBRANCH   7  10
ENDBRANCH   5   6
BRANCH   5  17
ATOM     17  CB  ASP A   3       8.674   6.814 -13.516  0.00  0.00    +0.143 C 
BRANCH  17  18
ATOM     18  CG  ASP A   3       8.874   8.241 -13.069  0.00  0.00    +0.367 C 
ATOM     19  OD2 ASP A   3       8.406   8.654 -12.010  0.00  0.00    -0.246 OA
ATOM     20  OD1 ASP A   3       9.604   9.021 -13.808  0.00  0.00    -0.246 OA
ENDBRANCH  17  18
ENDBRANCH   5  17
ENDBRANCH   3   5
BRANCH   1  21
ATOM     21  CA  LEU A   2       9.509   2.426 -12.895  0.00  0.00    +0.149 C 
BRANCH  21  23
ATOM     22  C   LEU A   1      10.904   2.230 -14.923  0.00  0.00    +0.238 C 
ATOM     23  N   LEU A   2      10.797   2.242 -13.599  0.00  0.00    -0.297 N 
ATOM     24  H   LEU A   2      11.659   2.116 -13.031  0.00  0.00    +0.150 HD
ATOM     25  O   LEU A   1       9.923   2.295 -15.668  0.00  0.00    -0.274 OA
BRANCH  22  26
ATOM     26  CA  LEU A   1      12.311   2.113 -15.512  0.00  0.00    +0.145 C 
BRANCH  26  27
ATOM     27  N   LEU A   1      12.397   0.894 -16.303  0.00  0.00    -0.238 NA
ATOM     28  H   LEU A   1      12.008   0.905 -17.267  0.00  0.00    +0.142 HD
ENDBRANCH  26  27
BRANCH  26  29
ATOM     29  CB  LEU A   1      12.648   3.313 -16.372  0.00  0.00    +0.026 C 
BRANCH  29  30
ATOM     30  CG  LEU A   1      12.516   4.643 -15.665  0.00  0.00    +0.002 C 
ATOM     31  CD2 LEU A   1      13.445   4.778 -14.432  0.00  0.00    +0.000 C 
ATOM     32  CD1 LEU A   1      12.803   5.766 -16.626  0.00  0.00    +0.000 C 
ENDBRANCH  29  30
ENDBRANCH  26  29
ENDBRANCH  22  26
ENDBRANCH  21  23
BRANCH  21  33
ATOM     33  CB  LEU A   2       9.526   1.619 -11.589  0.00  0.00    +0.029 C 
BRANCH  33  34
ATOM     34  CG  LEU A   2       9.335   0.106 -11.691  0.00  0.00    +0.002 C 
ATOM     35  CD2 LEU A   2       9.209  -0.474 -10.279  0.00  0.00    +0.000 C 
ATOM     36  CD1 LEU A   2      10.436  -0.571 -12.457  0.00  0.00    +0.000 C 
ENDBRANCH  33  34
ENDBRANCH  21  33
ENDBRANCH   1  21
TORSDOF 16
REMARK  Name = ../refined-set-2016/3pb9/3pb9_pocket.pdb
REMARK  119 active torsions:
REMARK  status: ('A' for Active; 'I' for Inactive)
REMARK    1  A    between atoms: _1  and  _3
REMARK    2  A    between atoms: _3  and  _4
REMARK    3  A    between atoms: _3  and  _6
REMARK    4  A    between atoms: _6  and  _7
REMARK    5  A    between atoms: _12  and  _14
REMARK    6  A    between atoms: _14  and  _15
REMARK    7  A    between atoms: _14  and  _17
REMARK    8  A    between atoms: _17  and  _18
REMARK    9  A    between atoms: _18  and  _19
REMARK   10  A    between atoms: _19  and  _20
REMARK   11  A    between atoms: _20  and  _21
REMARK   12  A    between atoms: _25  and  _27
REMARK   13  A    between atoms: _27  and  _28
REMARK   14  A    between atoms: _27  and  _30
REMARK   15  A    between atoms: _30  and  _31
REMARK   16  A    between atoms: _37  and  _39
REMARK   17  A    between atoms: _39  and  _40
REMARK   18  A    between atoms: _39  and  _42
REMARK   19  A    between atoms: _42  and  _43
REMARK   20  A    between atoms: _46  and  _48
REMARK   21  A    between atoms: _48  and  _49
REMARK   22  A    between atoms: _48  and  _51
REMARK   23  A    between atoms: _51  and  _52
REMARK   24  A    between atoms: _52  and  _54
REMARK   25  A    between atoms: _54  and  ZN_284
REMARK   26  A    between atoms: _55  and  _57
REMARK   27  A    between atoms: _57  and  _58
REMARK   28  A    between atoms: _57  and  _60
REMARK   29  A    between atoms: _60  and  _61
REMARK   30  A    between atoms: _63  and  _65
REMARK   31  A    between atoms: _65  and  _66
REMARK   32  A    between atoms: _65  and  _68
REMARK   33  A    between atoms: _68  and  _69
REMARK   34  A    between atoms: _69  and  _70
REMARK   35  A    between atoms: _73  and  _75
REMARK   36  A    between atoms: _75  and  _76
REMARK   37  A    between atoms: _75  and  _78
REMARK   38  A    between atoms: _78  and  _79
REMARK   39  A    between atoms: _79  and  _80
REMARK   40  A    between atoms: _80  and  _82
REMARK   41  A    between atoms: _82  and  ZN_284
REMARK   42  A    between atoms: _83  and  _85
REMARK   43  A    between atoms: _85  and  _86
REMARK   44  A    between atoms: _89  and  _91
REMARK   45  A    between atoms: _91  and  _92
REMARK   46  A    between atoms: _91  and  _94
REMARK   47  A    between atoms: _94  and  _95
REMARK   48  A    between atoms: _105  and  _107
REMARK   49  A    between atoms: _107  and  _108
REMARK   50  A    between atoms: _110  and  _112
REMARK   51  A    between atoms: _112  and  _113
REMARK   52  A    between atoms: _112  and  _115
REMARK   53  A    between atoms: _115  and  _116
REMARK   54  A    between atoms: _118  and  _120
REMARK   55  A    between atoms: _120  and  _121
REMARK   56  A    between atoms: _120  and  _123
REMARK   57  A    between atoms: _123  and  _124
REMARK   58  A    between atoms: _127  and  _129
REMARK   59  A    between atoms: _129  and  _130
REMARK   60  A    between atoms: _129  and  _132
REMARK   61  A    between atoms: _132  and  _133
REMARK   62  A    between atoms: _136  and  _138
REMARK   63  A    between atoms: _138  and  _139
REMARK   64  A    between atoms: _138  and  _141
REMARK   65  A    between atoms: _141  and  _142
REMARK   66  A    between atoms: _145  and  _147
REMARK   67  A    between atoms: _147  and  _148
REMARK   68  A    between atoms: _147  and  _150
REMARK   69  A    between atoms: _150  and  _151
REMARK   70  A    between atoms: _154  and  _156
REMARK   71  A    between atoms: _156  and  _157
REMARK   72  A    between atoms: _156  and  _159
REMARK   73  A    between atoms: _159  and  _160
REMARK   74  A    between atoms: _163  and  _165
REMARK   75  A    between atoms: _165  and  _166
REMARK   76  A    between atoms: _165  and  _168
REMARK   77  A    between atoms: _168  and  _169
REMARK   78  A    between atoms: _171  and  _173
REMARK   79  A    between atoms: _173  and  _174
REMARK   80  A    between atoms: _173  and  _176
REMARK   81  A    between atoms: _179  and  _181
REMARK   82  A    between atoms: _181  and  _182
REMARK   83  A    between atoms: _181  and  _184
REMARK   84  A    between atoms: _184  and  _185
REMARK   85  A    between atoms: _185  and  _186
REMARK   86  A    between atoms: _189  and  _191
REMARK   87  A    between atoms: _191  and  _192
REMARK   88  A    between atoms: _191  and  _194
REMARK   89  A    between atoms: _194  and  _195
REMARK   90  A    between atoms: _198  and  _200
REMARK   91  A    between atoms: _200  and  _201
REMARK   92  A    between atoms: _200  and  _203
REMARK   93  A    between atoms: _203  and  _204
REMARK   94  A    between atoms: _207  and  _209
REMARK   95  A    between atoms: _209  and  _210
REMARK   96  A    between atoms: _209  and  _212
REMARK   97  A    between atoms: _212  and  _213
REMARK   98  A    between atoms: _218  and  _220
REMARK   99  A    between atoms: _220  and  _221
REMARK  100  A    between atoms: _220  and  _223
REMARK  101  A    between atoms: _223  and  _224
REMARK  102  A    between atoms: _229  and  _231
REMARK  103  A    between atoms: _231  and  _232
REMARK  104  A    between atoms: _231  and  _234
REMARK  105  A    between atoms: _234  and  _235
REMARK  106  A    between atoms: _238  and  _240
REMARK  107  A    between atoms: _240  and  _241
REMARK  108  A    between atoms: _240  and  _243
REMARK  109  A    between atoms: _243  and  _244
REMARK  110  A    between atoms: _251  and  _252
REMARK  111  A    between atoms: _257  and  _259
REMARK  112  A    between atoms: _259  and  _260
REMARK  113  A    between atoms: _259  and  _262
REMARK  114  A    between atoms: _262  and  _263
REMARK  115  A    between atoms: _273  and  _275
REMARK  116  A    between atoms: _275  and  _276
REMARK  117  A    between atoms: _275  and  _278
REMARK  118  A    between atoms: _278  and  _279
REMARK  119  A    between atoms: _283  and  ZN_284
REMARK                            x       y       z     vdW  Elec       q    Type
REMARK                         _______ _______ _______ _____ _____    ______ ____
ROOT
ATOM      1  C   GLU A   3      11.611  11.627 -19.759  0.00  0.00    +0.241 C 
ATOM      2  O   GLU A   3      10.882  12.046 -18.843  0.00  0.00    -0.273 OA
ATOM      3  N   ASP A   4      12.641  10.803 -19.511  0.00  0.00    -0.297 N 
ATOM      4  H   ASP A   4      13.299  10.552 -20.276  0.00  0.00    +0.150 HD
ENDROOT
BRANCH   3   5
ATOM      5  CA  ASP A   4      12.840  10.263 -18.184  0.00  0.00    +0.160 C 
BRANCH   5   6
ATOM      6  C   ASP A   4      14.253   9.648 -18.173  0.00  0.00    +0.241 C 
ATOM      7  N   ASP A   5      14.577   9.036 -17.047  0.00  0.00    -0.297 N 
ATOM      8  H   ASP A   5      13.852   8.925 -16.310  0.00  0.00    +0.150 HD
ATOM      9  O   ASP A   4      14.995   9.723 -19.172  0.00  0.00    -0.273 OA
BRANCH   7  10
ATOM     10  CA  ASP A   5      15.920   8.509 -16.801  0.00  0.00    +0.160 C 
BRANCH  10  11
ATOM     11  C   ASP A   5      16.349   7.440 -17.750  0.00  0.00    +0.241 C 
ATOM     12  O   ASP A   5      17.561   7.134 -17.790  0.00  0.00    -0.273 OA
ATOM     13  N   HIS A   6      15.450   6.845 -18.555  0.00  0.00    -0.298 N 
ATOM     14  H   HIS A   6      14.437   7.060 -18.461  0.00  0.00    +0.150 HD
BRANCH  13  15
ATOM     15  CA  HIS A   6      15.913   5.893 -19.564  0.00  0.00    +0.143 C 
BRANCH  15  16
ATOM     16  C   HIS A   6      16.606   6.527 -20.733  0.00  0.00    +0.227 C 
ATOM     17  O   HIS A   6      17.306   5.812 -21.435  0.00  0.00    -0.286 OA
ENDBRANCH  15  16
BRANCH  15  18
ATOM     18  CB  HIS A   6      14.687   5.105 -20.068  0.00  0.00    +0.075 C 
BRANCH  18  19
ATOM     19  CG  HIS A   6      13.696   5.949 -20.770  0.00  0.00    +0.082 A 
ATOM     20  ND1 HIS A   6      13.037   6.968 -20.121  0.00  0.00    -0.227 NA
ATOM     21  CE1 HIS A   6      12.239   7.560 -20.990  0.00  0.00    +0.199 A 
ATOM     22  NE2 HIS A   6      12.354   6.966 -22.184  0.00  0.00    -0.221 NA
ATOM     23  CD2 HIS A   6      13.286   5.948 -22.069  0.00  0.00    +0.115 A 
ENDBRANCH  18  19
ENDBRANCH  15  18
ENDBRANCH  13  15
ENDBRANCH  10  11
BRANCH  10  24
ATOM     24  CB  ASP A   5      15.948   7.932 -15.363  0.00  0.00    +0.143 C 
BRANCH  24  25
ATOM     25  CG  ASP A   5      16.057   8.986 -14.278  0.00  0.00    +0.367 C 
ATOM     26  OD2 ASP A   5      15.418   8.775 -13.212  0.00  0.00    -0.246 OA
ATOM     27  OD1 ASP A   5      16.804   9.977 -14.477  0.00  0.00    -0.246 OA
ENDBRANCH  24  25
ENDBRANCH  10  24
ENDBRANCH   7  10
ENDBRANCH   5   6
BRANCH   5  28
ATOM     28  CB  ASP A   4      11.720   9.241 -17.864  0.00  0.00    +0.143 C 
BRANCH  28  29
ATOM     29  CG  ASP A   4      11.482   9.008 -16.399  0.00  0.00    +0.367 C 
ATOM     30  OD2 ASP A   4      12.223   9.501 -15.522  0.00  0.00    -0.246 OA
ATOM     31  OD1 ASP A   4      10.441   8.323 -16.106  0.00  0.00    -0.246 OA
ENDBRANCH  28  29
ENDBRANCH   5  28
ENDBRANCH   3   5
BRANCH   1  32
ATOM     32  CA  GLU A   3      11.302  12.052 -21.171  0.00  0.00    +0.149 C 
BRANCH  32  35
ATOM     33  C   VAL A   2       9.271  10.793 -21.340  0.00  0.00    +0.241 C 
ATOM     34  O   VAL A   2       9.879   9.717 -21.132  0.00  0.00    -0.273 OA
ATOM     35  N   GLU A   3       9.903  11.944 -21.414  0.00  0.00    -0.297 N 
ATOM     36  H   GLU A   3       9.365  12.800 -21.657  0.00  0.00    +0.150 HD
BRANCH  33  37
ATOM     37  CA  VAL A   2       7.749  10.797 -21.438  0.00  0.00    +0.148 C 
BRANCH  37  39
ATOM     38  C   SER A   1       6.463  10.330 -23.426  0.00  0.00    +0.241 C 
ATOM     39  N   VAL A   2       7.378   9.970 -22.567  0.00  0.00    -0.297 N 
ATOM     40  H   VAL A   2       7.857   9.057 -22.698  0.00  0.00    +0.150 HD
ATOM     41  O   SER A   1       5.927  11.413 -23.389  0.00  0.00    -0.274 OA
BRANCH  38  42
ATOM     42  CA  SER A   1       6.073   9.332 -24.467  0.00  0.00    +0.174 C 
BRANCH  42  43
ATOM     43  N   SER A   1       4.716   9.701 -24.976  0.00  0.00    -0.236 NA
ATOM     44  H   SER A   1       4.654  10.350 -25.786  0.00  0.00    +0.142 HD
ENDBRANCH  42  43
BRANCH  42  45
ATOM     45  CB  SER A   1       7.142   9.381 -25.572  0.00  0.00    +0.163 C 
BRANCH  45  46
ATOM     46  OG  SER A   1       7.228  10.684 -26.157  0.00  0.00    -0.380 OA
ATOM     47  H   SER A   1       7.467  11.343 -25.458  0.00  0.00    +0.211 HD
ENDBRANCH  45  46
ENDBRANCH  42  45
ENDBRANCH  38  42
ENDBRANCH  37  39
BRANCH  37  48
ATOM     48  CB  VAL A   2       7.151  10.249 -20.101  0.00  0.00    +0.027 C 
ATOM     49  CG2 VAL A   2       7.476  11.181 -19.049  0.00  0.00    +0.002 C 
ATOM     50  CG1 VAL A   2       5.608  10.106 -20.255  0.00  0.00    +0.002 C 
ENDBRANCH  37  48
ENDBRANCH  33  37
ENDBRANCH  32  35
BRANCH  32  51
ATOM     51  CB  GLU A   3      11.797  13.456 -21.451  0.00  0.00    +0.041 C 
BRANCH  51  52
ATOM     52  CG  GLU A   3      11.432  13.832 -22.887  0.00  0.00    +0.116 C 
BRANCH  52  53
ATOM     53  CD  GLU A   3      11.732  15.239 -23.302  0.00  0.00    +0.365 C 
ATOM     54  OE2 GLU A   3      12.390  15.942 -22.460  0.00  0.00    -0.246 OA
ATOM     55  OE1 GLU A   3      11.398  15.603 -24.516  0.00  0.00    -0.246 OA
ENDBRANCH  52  53
ENDBRANCH  51  52
ENDBRANCH  32  51
ENDBRANCH   1  32
TORSDOF 24
REMARK  Name = ../refined-set-2016/3pb9/3pb9_pocket.pdb
REMARK  119 active torsions:
REMARK  status: ('A' for Active; 'I' for Inactive)
REMARK    1  A    between atoms: _1  and  _3
REMARK    2  A    between atoms: _3  and  _4
REMARK    3  A    between atoms: _3  and  _6
REMARK    4  A    between atoms: _6  and  _7
REMARK    5  A    between atoms: _12  and  _14
REMARK    6  A    between atoms: _14  and  _15
REMARK    7  A    between atoms: _14  and  _17
REMARK    8  A    between atoms: _17  and  _18
REMARK    9  A    between atoms: _18  and  _19
REMARK   10  A    between atoms: _19  and  _20
REMARK   11  A    between atoms: _20  and  _21
REMARK   12  A    between atoms: _25  and  _27
REMARK   13  A    between atoms: _27  and  _28
REMARK   14  A    between atoms: _27  and  _30
REMARK   15  A    between atoms: _30  and  _31
REMARK   16  A    between atoms: _37  and  _39
REMARK   17  A    between atoms: _39  and  _40
REMARK   18  A    between atoms: _39  and  _42
REMARK   19  A    between atoms: _42  and  _43
REMARK   20  A    between atoms: _46  and  _48
REMARK   21  A    between atoms: _48  and  _49
REMARK   22  A    between atoms: _48  and  _51
REMARK   23  A    between atoms: _51  and  _52
REMARK   24  A    between atoms: _52  and  _54
REMARK   25  A    between atoms: _54  and  ZN_284
REMARK   26  A    between atoms: _55  and  _57
REMARK   27  A    between atoms: _57  and  _58
REMARK   28  A    between atoms: _57  and  _60
REMARK   29  A    between atoms: _60  and  _61
REMARK   30  A    between atoms: _63  and  _65
REMARK   31  A    between atoms: _65  and  _66
REMARK   32  A    between atoms: _65  and  _68
REMARK   33  A    between atoms: _68  and  _69
REMARK   34  A    between atoms: _69  and  _70
REMARK   35  A    between atoms: _73  and  _75
REMARK   36  A    between atoms: _75  and  _76
REMARK   37  A    between atoms: _75  and  _78
REMARK   38  A    between atoms: _78  and  _79
REMARK   39  A    between atoms: _79  and  _80
REMARK   40  A    between atoms: _80  and  _82
REMARK   41  A    between atoms: _82  and  ZN_284
REMARK   42  A    between atoms: _83  and  _85
REMARK   43  A    between atoms: _85  and  _86
REMARK   44  A    between atoms: _89  and  _91
REMARK   45  A    between atoms: _91  and  _92
REMARK   46  A    between atoms: _91  and  _94
REMARK   47  A    between atoms: _94  and  _95
REMARK   48  A    between atoms: _105  and  _107
REMARK   49  A    between atoms: _107  and  _108
REMARK   50  A    between atoms: _110  and  _112
REMARK   51  A    between atoms: _112  and  _113
REMARK   52  A    between atoms: _112  and  _115
REMARK   53  A    between atoms: _115  and  _116
REMARK   54  A    between atoms: _118  and  _120
REMARK   55  A    between atoms: _120  and  _121
REMARK   56  A    between atoms: _120  and  _123
REMARK   57  A    between atoms: _123  and  _124
REMARK   58  A    between atoms: _127  and  _129
REMARK   59  A    between atoms: _129  and  _130
REMARK   60  A    between atoms: _129  and  _132
REMARK   61  A    between atoms: _132  and  _133
REMARK   62  A    between atoms: _136  and  _138
REMARK   63  A    between atoms: _138  and  _139
REMARK   64  A    between atoms: _138  and  _141
REMARK   65  A    between atoms: _141  and  _142
REMARK   66  A    between atoms: _145  and  _147
REMARK   67  A    between atoms: _147  and  _148
REMARK   68  A    between atoms: _147  and  _150
REMARK   69  A    between atoms: _150  and  _151
REMARK   70  A    between atoms: _154  and  _156
REMARK   71  A    between atoms: _156  and  _157
REMARK   72  A    between atoms: _156  and  _159
REMARK   73  A    between atoms: _159  and  _160
REMARK   74  A    between atoms: _163  and  _165
REMARK   75  A    between atoms: _165  and  _166
REMARK   76  A    between atoms: _165  and  _168
REMARK   77  A    between atoms: _168  and  _169
REMARK   78  A    between atoms: _171  and  _173
REMARK   79  A    between atoms: _173  and  _174
REMARK   80  A    between atoms: _173  and  _176
REMARK   81  A    between atoms: _179  and  _181
REMARK   82  A    between atoms: _181  and  _182
REMARK   83  A    between atoms: _181  and  _184
REMARK   84  A    between atoms: _184  and  _185
REMARK   85  A    between atoms: _185  and  _186
REMARK   86  A    between atoms: _189  and  _191
REMARK   87  A    between atoms: _191  and  _192
REMARK   88  A    between atoms: _191  and  _194
REMARK   89  A    between atoms: _194  and  _195
REMARK   90  A    between atoms: _198  and  _200
REMARK   91  A    between atoms: _200  and  _201
REMARK   92  A    between atoms: _200  and  _203
REMARK   93  A    between atoms: _203  and  _204
REMARK   94  A    between atoms: _207  and  _209
REMARK   95  A    between atoms: _209  and  _210
REMARK   96  A    between atoms: _209  and  _212
REMARK   97  A    between atoms: _212  and  _213
REMARK   98  A    between atoms: _218  and  _220
REMARK   99  A    between atoms: _220  and  _221
REMARK  100  A    between atoms: _220  and  _223
REMARK  101  A    between atoms: _223  and  _224
REMARK  102  A    between atoms: _229  and  _231
REMARK  103  A    between atoms: _231  and  _232
REMARK  104  A    between atoms: _231  and  _234
REMARK  105  A    between atoms: _234  and  _235
REMARK  106  A    between atoms: _238  and  _240
REMARK  107  A    between atoms: _240  and  _241
REMARK  108  A    between atoms: _240  and  _243
REMARK  109  A    between atoms: _243  and  _244
REMARK  110  A    between atoms: _251  and  _252
REMARK  111  A    between atoms: _257  and  _259
REMARK  112  A    between atoms: _259  and  _260
REMARK  113  A    between atoms: _259  and  _262
REMARK  114  A    between atoms: _262  and  _263
REMARK  115  A    between atoms: _273  and  _275
REMARK  116  A    between atoms: _275  and  _276
REMARK  117  A    between atoms: _275  and  _278
REMARK  118  A    between atoms: _278  and  _279
REMARK  119  A    between atoms: _283  and  ZN_284
REMARK                            x       y       z     vdW  Elec       q    Type
REMARK                         _______ _______ _______ _____ _____    ______ ____
ROOT
ATOM      1  CB  HIS A   1       9.179   3.584 -20.374  0.00  0.00    +0.072 C 
ENDROOT
BRANCH   1   2
ATOM      2  CG  HIS A   1       9.268   4.871 -19.605  0.00  0.00    +0.082 A 
ATOM      3  CD2 HIS A   1       9.533   5.106 -18.281  0.00  0.00    +0.115 A 
ATOM      4  NE2 HIS A   1       9.571   6.480 -18.148  0.00  0.00    -0.221 NA
ATOM      5  CE1 HIS A   1       9.329   7.032 -19.337  0.00  0.00    +0.199 A 
ATOM      6  ND1 HIS A   1       9.139   6.096 -20.250  0.00  0.00    -0.227 NA
ENDBRANCH   1   2
BRANCH   1   7
ATOM      7  CA  HIS A   1       9.256   2.351 -19.499  0.00  0.00    +0.139 C 
BRANCH   7   8
ATOM      8  N   HIS A   1       9.548   1.194 -20.337  0.00  0.00    -0.239 NA
ATOM      9  H   HIS A   1       9.020   1.070 -21.224  0.00  0.00    +0.142 HD
ENDBRANCH   7   8
BRANCH   7  10
ATOM     10  C   HIS A   1       7.941   2.092 -18.789  0.00  0.00    +0.224 C 
ATOM     11  O   HIS A   1       6.859   2.225 -19.366  0.00  0.00    -0.287 OA
ENDBRANCH   7  10
ENDBRANCH   1   7
TORSDOF 4
REMARK  Name = ../refined-set-2016/3pb9/3pb9_pocket.pdb
REMARK  119 active torsions:
REMARK  status: ('A' for Active; 'I' for Inactive)
REMARK    1  A    between atoms: _1  and  _3
REMARK    2  A    between atoms: _3  and  _4
REMARK    3  A    between atoms: _3  and  _6
REMARK    4  A    between atoms: _6  and  _7
REMARK    5  A    between atoms: _12  and  _14
REMARK    6  A    between atoms: _14  and  _15
REMARK    7  A    between atoms: _14  and  _17
REMARK    8  A    between atoms: _17  and  _18
REMARK    9  A    between atoms: _18  and  _19
REMARK   10  A    between atoms: _19  and  _20
REMARK   11  A    between atoms: _20  and  _21
REMARK   12  A    between atoms: _25  and  _27
REMARK   13  A    between atoms: _27  and  _28
REMARK   14  A    between atoms: _27  and  _30
REMARK   15  A    between atoms: _30  and  _31
REMARK   16  A    between atoms: _37  and  _39
REMARK   17  A    between atoms: _39  and  _40
REMARK   18  A    between atoms: _39  and  _42
REMARK   19  A    between atoms: _42  and  _43
REMARK   20  A    between atoms: _46  and  _48
REMARK   21  A    between atoms: _48  and  _49
REMARK   22  A    between atoms: _48  and  _51
REMARK   23  A    between atoms: _51  and  _52
REMARK   24  A    between atoms: _52  and  _54
REMARK   25  A    between atoms: _54  and  ZN_284
REMARK   26  A    between atoms: _55  and  _57
REMARK   27  A    between atoms: _57  and  _58
REMARK   28  A    between atoms: _57  and  _60
REMARK   29  A    between atoms: _60  and  _61
REMARK   30  A    between atoms: _63  and  _65
REMARK   31  A    between atoms: _65  and  _66
REMARK   32  A    between atoms: _65  and  _68
REMARK   33  A    between atoms: _68  and  _69
REMARK   34  A    between atoms: _69  and  _70
REMARK   35  A    between atoms: _73  and  _75
REMARK   36  A    between atoms: _75  and  _76
REMARK   37  A    between atoms: _75  and  _78
REMARK   38  A    between atoms: _78  and  _79
REMARK   39  A    between atoms: _79  and  _80
REMARK   40  A    between atoms: _80  and  _82
REMARK   41  A    between atoms: _82  and  ZN_284
REMARK   42  A    between atoms: _83  and  _85
REMARK   43  A    between atoms: _85  and  _86
REMARK   44  A    between atoms: _89  and  _91
REMARK   45  A    between atoms: _91  and  _92
REMARK   46  A    between atoms: _91  and  _94
REMARK   47  A    between atoms: _94  and  _95
REMARK   48  A    between atoms: _105  and  _107
REMARK   49  A    between atoms: _107  and  _108
REMARK   50  A    between atoms: _110  and  _112
REMARK   51  A    between atoms: _112  and  _113
REMARK   52  A    between atoms: _112  and  _115
REMARK   53  A    between atoms: _115  and  _116
REMARK   54  A    between atoms: _118  and  _120
REMARK   55  A    between atoms: _120  and  _121
REMARK   56  A    between atoms: _120  and  _123
REMARK   57  A    between atoms: _123  and  _124
REMARK   58  A    between atoms: _127  and  _129
REMARK   59  A    between atoms: _129  and  _130
REMARK   60  A    between atoms: _129  and  _132
REMARK   61  A    between atoms: _132  and  _133
REMARK   62  A    between atoms: _136  and  _138
REMARK   63  A    between atoms: _138  and  _139
REMARK   64  A    between atoms: _138  and  _141
REMARK   65  A    between atoms: _141  and  _142
REMARK   66  A    between atoms: _145  and  _147
REMARK   67  A    between atoms: _147  and  _148
REMARK   68  A    between atoms: _147  and  _150
REMARK   69  A    between atoms: _150  and  _151
REMARK   70  A    between atoms: _154  and  _156
REMARK   71  A    between atoms: _156  and  _157
REMARK   72  A    between atoms: _156  and  _159
REMARK   73  A    between atoms: _159  and  _160
REMARK   74  A    between atoms: _163  and  _165
REMARK   75  A    between atoms: _165  and  _166
REMARK   76  A    between atoms: _165  and  _168
REMARK   77  A    between atoms: _168  and  _169
REMARK   78  A    between atoms: _171  and  _173
REMARK   79  A    between atoms: _173  and  _174
REMARK   80  A    between atoms: _173  and  _176
REMARK   81  A    between atoms: _179  and  _181
REMARK   82  A    between atoms: _181  and  _182
REMARK   83  A    between atoms: _181  and  _184
REMARK   84  A    between atoms: _184  and  _185
REMARK   85  A    between atoms: _185  and  _186
REMARK   86  A    between atoms: _189  and  _191
REMARK   87  A    between atoms: _191  and  _192
REMARK   88  A    between atoms: _191  and  _194
REMARK   89  A    between atoms: _194  and  _195
REMARK   90  A    between atoms: _198  and  _200
REMARK   91  A    between atoms: _200  and  _201
REMARK   92  A    between atoms: _200  and  _203
REMARK   93  A    between atoms: _203  and  _204
REMARK   94  A    between atoms: _207  and  _209
REMARK   95  A    between atoms: _209  and  _210
REMARK   96  A    between atoms: _209  and  _212
REMARK   97  A    between atoms: _212  and  _213
REMARK   98  A    between atoms: _218  and  _220
REMARK   99  A    between atoms: _220  and  _221
REMARK  100  A    between atoms: _220  and  _223
REMARK  101  A    between atoms: _223  and  _224
REMARK  102  A    between atoms: _229  and  _231
REMARK  103  A    between atoms: _231  and  _232
REMARK  104  A    between atoms: _231  and  _234
REMARK  105  A    between atoms: _234  and  _235
REMARK  106  A    between atoms: _238  and  _240
REMARK  107  A    between atoms: _240  and  _241
REMARK  108  A    between atoms: _240  and  _243
REMARK  109  A    between atoms: _243  and  _244
REMARK  110  A    between atoms: _251  and  _252
REMARK  111  A    between atoms: _257  and  _259
REMARK  112  A    between atoms: _259  and  _260
REMARK  113  A    between atoms: _259  and  _262
REMARK  114  A    between atoms: _262  and  _263
REMARK  115  A    between atoms: _273  and  _275
REMARK  116  A    between atoms: _275  and  _276
REMARK  117  A    between atoms: _275  and  _278
REMARK  118  A    between atoms: _278  and  _279
REMARK  119  A    between atoms: _283  and  ZN_284
REMARK                            x       y       z     vdW  Elec       q    Type
REMARK                         _______ _______ _______ _____ _____    ______ ____
ROOT
ATOM      1  CA  ILE A   1       5.214   4.805 -16.190  0.00  0.00    +0.133 C 
ENDROOT
BRANCH   1   2
ATOM      2  N   ILE A   1       5.636   3.471 -16.672  0.00  0.00    -0.239 NA
ATOM      3  H   ILE A   1       5.348   3.183 -17.629  0.00  0.00    +0.142 HD
ENDBRANCH   1   2
BRANCH   1   4
ATOM      4  C   ILE A   1       3.722   4.938 -16.491  0.00  0.00    +0.224 C 
ATOM      5  O   ILE A   1       3.314   4.605 -17.620  0.00  0.00    -0.287 OA
ENDBRANCH   1   4
BRANCH   1   6
ATOM      6  CB  ILE A   1       6.047   5.922 -16.837  0.00  0.00    +0.023 C 
ATOM      7  CG2 ILE A   1       5.983   5.918 -18.363  0.00  0.00    +0.002 C 
BRANCH   6   8
ATOM      8  CG1 ILE A   1       5.686   7.277 -16.229  0.00  0.00    +0.002 C 
ATOM      9  CD1 ILE A   1       6.647   8.419 -16.599  0.00  0.00    +0.000 C 
ENDBRANCH   6   8
ENDBRANCH   1   6
TORSDOF 4
REMARK  Name = ../refined-set-2016/3pb9/3pb9_pocket.pdb
REMARK  119 active torsions:
REMARK  status: ('A' for Active; 'I' for Inactive)
REMARK    1  A    between atoms: _1  and  _3
REMARK    2  A    between atoms: _3  and  _4
REMARK    3  A    between atoms: _3  and  _6
REMARK    4  A    between atoms: _6  and  _7
REMARK    5  A    between atoms: _12  and  _14
REMARK    6  A    between atoms: _14  and  _15
REMARK    7  A    between atoms: _14  and  _17
REMARK    8  A    between atoms: _17  and  _18
REMARK    9  A    between atoms: _18  and  _19
REMARK   10  A    between atoms: _19  and  _20
REMARK   11  A    between atoms: _20  and  _21
REMARK   12  A    between atoms: _25  and  _27
REMARK   13  A    between atoms: _27  and  _28
REMARK   14  A    between atoms: _27  and  _30
REMARK   15  A    between atoms: _30  and  _31
REMARK   16  A    between atoms: _37  and  _39
REMARK   17  A    between atoms: _39  and  _40
REMARK   18  A    between atoms: _39  and  _42
REMARK   19  A    between atoms: _42  and  _43
REMARK   20  A    between atoms: _46  and  _48
REMARK   21  A    between atoms: _48  and  _49
REMARK   22  A    between atoms: _48  and  _51
REMARK   23  A    between atoms: _51  and  _52
REMARK   24  A    between atoms: _52  and  _54
REMARK   25  A    between atoms: _54  and  ZN_284
REMARK   26  A    between atoms: _55  and  _57
REMARK   27  A    between atoms: _57  and  _58
REMARK   28  A    between atoms: _57  and  _60
REMARK   29  A    between atoms: _60  and  _61
REMARK   30  A    between atoms: _63  and  _65
REMARK   31  A    between atoms: _65  and  _66
REMARK   32  A    between atoms: _65  and  _68
REMARK   33  A    between atoms: _68  and  _69
REMARK   34  A    between atoms: _69  and  _70
REMARK   35  A    between atoms: _73  and  _75
REMARK   36  A    between atoms: _75  and  _76
REMARK   37  A    between atoms: _75  and  _78
REMARK   38  A    between atoms: _78  and  _79
REMARK   39  A    between atoms: _79  and  _80
REMARK   40  A    between atoms: _80  and  _82
REMARK   41  A    between atoms: _82  and  ZN_284
REMARK   42  A    between atoms: _83  and  _85
REMARK   43  A    between atoms: _85  and  _86
REMARK   44  A    between atoms: _89  and  _91
REMARK   45  A    between atoms: _91  and  _92
REMARK   46  A    between atoms: _91  and  _94
REMARK   47  A    between atoms: _94  and  _95
REMARK   48  A    between atoms: _105  and  _107
REMARK   49  A    between atoms: _107  and  _108
REMARK   50  A    between atoms: _110  and  _112
REMARK   51  A    between atoms: _112  and  _113
REMARK   52  A    between atoms: _112  and  _115
REMARK   53  A    between atoms: _115  and  _116
REMARK   54  A    between atoms: _118  and  _120
REMARK   55  A    between atoms: _120  and  _121
REMARK   56  A    between atoms: _120  and  _123
REMARK   57  A    between atoms: _123  and  _124
REMARK   58  A    between atoms: _127  and  _129
REMARK   59  A    between atoms: _129  and  _130
REMARK   60  A    between atoms: _129  and  _132
REMARK   61  A    between atoms: _132  and  _133
REMARK   62  A    between atoms: _136  and  _138
REMARK   63  A    between atoms: _138  and  _139
REMARK   64  A    between atoms: _138  and  _141
REMARK   65  A    between atoms: _141  and  _142
REMARK   66  A    between atoms: _145  and  _147
REMARK   67  A    between atoms: _147  and  _148
REMARK   68  A    between atoms: _147  and  _150
REMARK   69  A    between atoms: _150  and  _151
REMARK   70  A    between atoms: _154  and  _156
REMARK   71  A    between atoms: _156  and  _157
REMARK   72  A    between atoms: _156  and  _159
REMARK   73  A    between atoms: _159  and  _160
REMARK   74  A    between atoms: _163  and  _165
REMARK   75  A    between atoms: _165  and  _166
REMARK   76  A    between atoms: _165  and  _168
REMARK   77  A    between atoms: _168  and  _169
REMARK   78  A    between atoms: _171  and  _173
REMARK   79  A    between atoms: _173  and  _174
REMARK   80  A    between atoms: _173  and  _176
REMARK   81  A    between atoms: _179  and  _181
REMARK   82  A    between atoms: _181  and  _182
REMARK   83  A    between atoms: _181  and  _184
REMARK   84  A    between atoms: _184  and  _185
REMARK   85  A    between atoms: _185  and  _186
REMARK   86  A    between atoms: _189  and  _191
REMARK   87  A    between atoms: _191  and  _192
REMARK   88  A    between atoms: _191  and  _194
REMARK   89  A    between atoms: _194  and  _195
REMARK   90  A    between atoms: _198  and  _200
REMARK   91  A    between atoms: _200  and  _201
REMARK   92  A    between atoms: _200  and  _203
REMARK   93  A    between atoms: _203  and  _204
REMARK   94  A    between atoms: _207  and  _209
REMARK   95  A    between atoms: _209  and  _210
REMARK   96  A    between atoms: _209  and  _212
REMARK   97  A    between atoms: _212  and  _213
REMARK   98  A    between atoms: _218  and  _220
REMARK   99  A    between atoms: _220  and  _221
REMARK  100  A    between atoms: _220  and  _223
REMARK  101  A    between atoms: _223  and  _224
REMARK  102  A    between atoms: _229  and  _231
REMARK  103  A    between atoms: _231  and  _232
REMARK  104  A    between atoms: _231  and  _234
REMARK  105  A    between atoms: _234  and  _235
REMARK  106  A    between atoms: _238  and  _240
REMARK  107  A    between atoms: _240  and  _241
REMARK  108  A    between atoms: _240  and  _243
REMARK  109  A    between atoms: _243  and  _244
REMARK  110  A    between atoms: _251  and  _252
REMARK  111  A    between atoms: _257  and  _259
REMARK  112  A    between atoms: _259  and  _260
REMARK  113  A    between atoms: _259  and  _262
REMARK  114  A    between atoms: _262  and  _263
REMARK  115  A    between atoms: _273  and  _275
REMARK  116  A    between atoms: _275  and  _276
REMARK  117  A    between atoms: _275  and  _278
REMARK  118  A    between atoms: _278  and  _279
REMARK  119  A    between atoms: _283  and  ZN_284
REMARK                            x       y       z     vdW  Elec       q    Type
REMARK                         _______ _______ _______ _____ _____    ______ ____
ROOT
ATOM      1  CA  PHE A   1      -0.036  10.755 -15.062  0.00  0.00    +0.149 C 
ENDROOT
BRANCH   1   2
ATOM      2  C   PHE A   1      -1.068  10.679 -13.951  0.00  0.00    +0.242 C 
ATOM      3  N   PRO A   2      -0.620  10.369 -12.735  0.00  0.00    -0.273 N 
ATOM      4  CA  PRO A   2      -1.523  10.511 -11.570  0.00  0.00    +0.140 C 
ATOM      5  CB  PRO A   2      -0.562  10.327 -10.372  0.00  0.00    +0.030 C 
ATOM      6  CG  PRO A   2       0.500   9.383 -10.911  0.00  0.00    +0.024 C 
ATOM      7  CD  PRO A   2       0.725   9.922 -12.347  0.00  0.00    +0.094 C 
ATOM      8  O   PHE A   1      -2.256  10.926 -14.156  0.00  0.00    -0.273 OA
BRANCH   4   9
ATOM      9  C   PRO A   2      -2.167  11.872 -11.520  0.00  0.00    +0.227 C 
ATOM     10  O   PRO A   2      -1.562  12.883 -11.866  0.00  0.00    -0.286 OA
ENDBRANCH   4   9
ENDBRANCH   1   2
BRANCH   1  11
ATOM     11  N   PHE A   1      -0.648  10.670 -16.378  0.00  0.00    -0.238 NA
ATOM     12  H   PHE A   1      -0.619  11.504 -16.998  0.00  0.00    +0.142 HD
ENDBRANCH   1  11
BRANCH   1  13
ATOM     13  CB  PHE A   1       0.725  12.069 -14.949  0.00  0.00    +0.053 C 
BRANCH  13  14
ATOM     14  CG  PHE A   1       1.829  12.270 -15.945  0.00  0.00    -0.020 A 
ATOM     15  CD2 PHE A   1       2.325  13.552 -16.147  0.00  0.00    -0.004 A 
ATOM     16  CE2 PHE A   1       3.359  13.800 -17.028  0.00  0.00    -0.000 A 
ATOM     17  CZ  PHE A   1       3.965  12.673 -17.728  0.00  0.00    -0.000 A 
ATOM     18  CE1 PHE A   1       3.509  11.427 -17.479  0.00  0.00    -0.000 A 
ATOM     19  CD1 PHE A   1       2.424  11.211 -16.618  0.00  0.00    -0.004 A 
ENDBRANCH  13  14
ENDBRANCH   1  13
TORSDOF 5
REMARK  Name = ../refined-set-2016/3pb9/3pb9_pocket.pdb
REMARK  119 active torsions:
REMARK  status: ('A' for Active; 'I' for Inactive)
REMARK    1  A    between atoms: _1  and  _3
REMARK    2  A    between atoms: _3  and  _4
REMARK    3  A    between atoms: _3  and  _6
REMARK    4  A    between atoms: _6  and  _7
REMARK    5  A    between atoms: _12  and  _14
REMARK    6  A    between atoms: _14  and  _15
REMARK    7  A    between atoms: _14  and  _17
REMARK    8  A    between atoms: _17  and  _18
REMARK    9  A    between atoms: _18  and  _19
REMARK   10  A    between atoms: _19  and  _20
REMARK   11  A    between atoms: _20  and  _21
REMARK   12  A    between atoms: _25  and  _27
REMARK   13  A    between atoms: _27  and  _28
REMARK   14  A    between atoms: _27  and  _30
REMARK   15  A    between atoms: _30  and  _31
REMARK   16  A    between atoms: _37  and  _39
REMARK   17  A    between atoms: _39  and  _40
REMARK   18  A    between atoms: _39  and  _42
REMARK   19  A    between atoms: _42  and  _43
REMARK   20  A    between atoms: _46  and  _48
REMARK   21  A    between atoms: _48  and  _49
REMARK   22  A    between atoms: _48  and  _51
REMARK   23  A    between atoms: _51  and  _52
REMARK   24  A    between atoms: _52  and  _54
REMARK   25  A    between atoms: _54  and  ZN_284
REMARK   26  A    between atoms: _55  and  _57
REMARK   27  A    between atoms: _57  and  _58
REMARK   28  A    between atoms: _57  and  _60
REMARK   29  A    between atoms: _60  and  _61
REMARK   30  A    between atoms: _63  and  _65
REMARK   31  A    between atoms: _65  and  _66
REMARK   32  A    between atoms: _65  and  _68
REMARK   33  A    between atoms: _68  and  _69
REMARK   34  A    between atoms: _69  and  _70
REMARK   35  A    between atoms: _73  and  _75
REMARK   36  A    between atoms: _75  and  _76
REMARK   37  A    between atoms: _75  and  _78
REMARK   38  A    between atoms: _78  and  _79
REMARK   39  A    between atoms: _79  and  _80
REMARK   40  A    between atoms: _80  and  _82
REMARK   41  A    between atoms: _82  and  ZN_284
REMARK   42  A    between atoms: _83  and  _85
REMARK   43  A    between atoms: _85  and  _86
REMARK   44  A    between atoms: _89  and  _91
REMARK   45  A    between atoms: _91  and  _92
REMARK   46  A    between atoms: _91  and  _94
REMARK   47  A    between atoms: _94  and  _95
REMARK   48  A    between atoms: _105  and  _107
REMARK   49  A    between atoms: _107  and  _108
REMARK   50  A    between atoms: _110  and  _112
REMARK   51  A    between atoms: _112  and  _113
REMARK   52  A    between atoms: _112  and  _115
REMARK   53  A    between atoms: _115  and  _116
REMARK   54  A    between atoms: _118  and  _120
REMARK   55  A    between atoms: _120  and  _121
REMARK   56  A    between atoms: _120  and  _123
REMARK   57  A    between atoms: _123  and  _124
REMARK   58  A    between atoms: _127  and  _129
REMARK   59  A    between atoms: _129  and  _130
REMARK   60  A    between atoms: _129  and  _132
REMARK   61  A    between atoms: _132  and  _133
REMARK   62  A    between atoms: _136  and  _138
REMARK   63  A    between atoms: _138  and  _139
REMARK   64  A    between atoms: _138  and  _141
REMARK   65  A    between atoms: _141  and  _142
REMARK   66  A    between atoms: _145  and  _147
REMARK   67  A    between atoms: _147  and  _148
REMARK   68  A    between atoms: _147  and  _150
REMARK   69  A    between atoms: _150  and  _151
REMARK   70  A    between atoms: _154  and  _156
REMARK   71  A    between atoms: _156  and  _157
REMARK   72  A    between atoms: _156  and  _159
REMARK   73  A    between atoms: _159  and  _160
REMARK   74  A    between atoms: _163  and  _165
REMARK   75  A    between atoms: _165  and  _166
REMARK   76  A    between atoms: _165  and  _168
REMARK   77  A    between atoms: _168  and  _169
REMARK   78  A    between atoms: _171  and  _173
REMARK   79  A    between atoms: _173  and  _174
REMARK   80  A    between atoms: _173  and  _176
REMARK   81  A    between atoms: _179  and  _181
REMARK   82  A    between atoms: _181  and  _182
REMARK   83  A    between atoms: _181  and  _184
REMARK   84  A    between atoms: _184  and  _185
REMARK   85  A    between atoms: _185  and  _186
REMARK   86  A    between atoms: _189  and  _191
REMARK   87  A    between atoms: _191  and  _192
REMARK   88  A    between atoms: _191  and  _194
REMARK   89  A    between atoms: _194  and  _195
REMARK   90  A    between atoms: _198  and  _200
REMARK   91  A    between atoms: _200  and  _201
REMARK   92  A    between atoms: _200  and  _203
REMARK   93  A    between atoms: _203  and  _204
REMARK   94  A    between atoms: _207  and  _209
REMARK   95  A    between atoms: _209  and  _210
REMARK   96  A    between atoms: _209  and  _212
REMARK   97  A    between atoms: _212  and  _213
REMARK   98  A    between atoms: _218  and  _220
REMARK   99  A    between atoms: _220  and  _221
REMARK  100  A    between atoms: _220  and  _223
REMARK  101  A    between atoms: _223  and  _224
REMARK  102  A    between atoms: _229  and  _231
REMARK  103  A    between atoms: _231  and  _232
REMARK  104  A    between atoms: _231  and  _234
REMARK  105  A    between atoms: _234  and  _235
REMARK  106  A    between atoms: _238  and  _240
REMARK  107  A    between atoms: _240  and  _241
REMARK  108  A    between atoms: _240  and  _243
REMARK  109  A    between atoms: _243  and  _244
REMARK  110  A    between atoms: _251  and  _252
REMARK  111  A    between atoms: _257  and  _259
REMARK  112  A    between atoms: _259  and  _260
REMARK  113  A    between atoms: _259  and  _262
REMARK  114  A    between atoms: _262  and  _263
REMARK  115  A    between atoms: _273  and  _275
REMARK  116  A    between atoms: _275  and  _276
REMARK  117  A    between atoms: _275  and  _278
REMARK  118  A    between atoms: _278  and  _279
REMARK  119  A    between atoms: _283  and  ZN_284
REMARK                            x       y       z     vdW  Elec       q    Type
REMARK                         _______ _______ _______ _____ _____    ______ ____
ROOT
ATOM      1  O   HOH     1       5.702  20.198 -13.621  0.00  0.00    +0.000 OA
ENDROOT
TORSDOF 0
REMARK  Name = ../refined-set-2016/3pb9/3pb9_pocket.pdb
REMARK  119 active torsions:
REMARK  status: ('A' for Active; 'I' for Inactive)
REMARK    1  A    between atoms: _1  and  _3
REMARK    2  A    between atoms: _3  and  _4
REMARK    3  A    between atoms: _3  and  _6
REMARK    4  A    between atoms: _6  and  _7
REMARK    5  A    between atoms: _12  and  _14
REMARK    6  A    between atoms: _14  and  _15
REMARK    7  A    between atoms: _14  and  _17
REMARK    8  A    between atoms: _17  and  _18
REMARK    9  A    between atoms: _18  and  _19
REMARK   10  A    between atoms: _19  and  _20
REMARK   11  A    between atoms: _20  and  _21
REMARK   12  A    between atoms: _25  and  _27
REMARK   13  A    between atoms: _27  and  _28
REMARK   14  A    between atoms: _27  and  _30
REMARK   15  A    between atoms: _30  and  _31
REMARK   16  A    between atoms: _37  and  _39
REMARK   17  A    between atoms: _39  and  _40
REMARK   18  A    between atoms: _39  and  _42
REMARK   19  A    between atoms: _42  and  _43
REMARK   20  A    between atoms: _46  and  _48
REMARK   21  A    between atoms: _48  and  _49
REMARK   22  A    between atoms: _48  and  _51
REMARK   23  A    between atoms: _51  and  _52
REMARK   24  A    between atoms: _52  and  _54
REMARK   25  A    between atoms: _54  and  ZN_284
REMARK   26  A    between atoms: _55  and  _57
REMARK   27  A    between atoms: _57  and  _58
REMARK   28  A    between atoms: _57  and  _60
REMARK   29  A    between atoms: _60  and  _61
REMARK   30  A    between atoms: _63  and  _65
REMARK   31  A    between atoms: _65  and  _66
REMARK   32  A    between atoms: _65  and  _68
REMARK   33  A    between atoms: _68  and  _69
REMARK   34  A    between atoms: _69  and  _70
REMARK   35  A    between atoms: _73  and  _75
REMARK   36  A    between atoms: _75  and  _76
REMARK   37  A    between atoms: _75  and  _78
REMARK   38  A    between atoms: _78  and  _79
REMARK   39  A    between atoms: _79  and  _80
REMARK   40  A    between atoms: _80  and  _82
REMARK   41  A    between atoms: _82  and  ZN_284
REMARK   42  A    between atoms: _83  and  _85
REMARK   43  A    between atoms: _85  and  _86
REMARK   44  A    between atoms: _89  and  _91
REMARK   45  A    between atoms: _91  and  _92
REMARK   46  A    between atoms: _91  and  _94
REMARK   47  A    between atoms: _94  and  _95
REMARK   48  A    between atoms: _105  and  _107
REMARK   49  A    between atoms: _107  and  _108
REMARK   50  A    between atoms: _110  and  _112
REMARK   51  A    between atoms: _112  and  _113
REMARK   52  A    between atoms: _112  and  _115
REMARK   53  A    between atoms: _115  and  _116
REMARK   54  A    between atoms: _118  and  _120
REMARK   55  A    between atoms: _120  and  _121
REMARK   56  A    between atoms: _120  and  _123
REMARK   57  A    between atoms: _123  and  _124
REMARK   58  A    between atoms: _127  and  _129
REMARK   59  A    between atoms: _129  and  _130
REMARK   60  A    between atoms: _129  and  _132
REMARK   61  A    between atoms: _132  and  _133
REMARK   62  A    between atoms: _136  and  _138
REMARK   63  A    between atoms: _138  and  _139
REMARK   64  A    between atoms: _138  and  _141
REMARK   65  A    between atoms: _141  and  _142
REMARK   66  A    between atoms: _145  and  _147
REMARK   67  A    between atoms: _147  and  _148
REMARK   68  A    between atoms: _147  and  _150
REMARK   69  A    between atoms: _150  and  _151
REMARK   70  A    between atoms: _154  and  _156
REMARK   71  A    between atoms: _156  and  _157
REMARK   72  A    between atoms: _156  and  _159
REMARK   73  A    between atoms: _159  and  _160
REMARK   74  A    between atoms: _163  and  _165
REMARK   75  A    between atoms: _165  and  _166
REMARK   76  A    between atoms: _165  and  _168
REMARK   77  A    between atoms: _168  and  _169
REMARK   78  A    between atoms: _171  and  _173
REMARK   79  A    between atoms: _173  and  _174
REMARK   80  A    between atoms: _173  and  _176
REMARK   81  A    between atoms: _179  and  _181
REMARK   82  A    between atoms: _181  and  _182
REMARK   83  A    between atoms: _181  and  _184
REMARK   84  A    between atoms: _184  and  _185
REMARK   85  A    between atoms: _185  and  _186
REMARK   86  A    between atoms: _189  and  _191
REMARK   87  A    between atoms: _191  and  _192
REMARK   88  A    between atoms: _191  and  _194
REMARK   89  A    between atoms: _194  and  _195
REMARK   90  A    between atoms: _198  and  _200
REMARK   91  A    between atoms: _200  and  _201
REMARK   92  A    between atoms: _200  and  _203
REMARK   93  A    between atoms: _203  and  _204
REMARK   94  A    between atoms: _207  and  _209
REMARK   95  A    between atoms: _209  and  _210
REMARK   96  A    between atoms: _209  and  _212
REMARK   97  A    between atoms: _212  and  _213
REMARK   98  A    between atoms: _218  and  _220
REMARK   99  A    between atoms: _220  and  _221
REMARK  100  A    between atoms: _220  and  _223
REMARK  101  A    between atoms: _223  and  _224
REMARK  102  A    between atoms: _229  and  _231
REMARK  103  A    between atoms: _231  and  _232
REMARK  104  A    between atoms: _231  and  _234
REMARK  105  A    between atoms: _234  and  _235
REMARK  106  A    between atoms: _238  and  _240
REMARK  107  A    between atoms: _240  and  _241
REMARK  108  A    between atoms: _240  and  _243
REMARK  109  A    between atoms: _243  and  _244
REMARK  110  A    between atoms: _251  and  _252
REMARK  111  A    between atoms: _257  and  _259
REMARK  112  A    between atoms: _259  and  _260
REMARK  113  A    between atoms: _259  and  _262
REMARK  114  A    between atoms: _262  and  _263
REMARK  115  A    between atoms: _273  and  _275
REMARK  116  A    between atoms: _275  and  _276
REMARK  117  A    between atoms: _275  and  _278
REMARK  118  A    between atoms: _278  and  _279
REMARK  119  A    between atoms: _283  and  ZN_284
REMARK                            x       y       z     vdW  Elec       q    Type
REMARK                         _______ _______ _______ _____ _____    ______ ____
ROOT
ATOM      1  O   HOH     1       4.257  13.904  -8.799  0.00  0.00    +0.000 OA
ENDROOT
TORSDOF 0
REMARK  Name = ../refined-set-2016/3pb9/3pb9_pocket.pdb
REMARK  119 active torsions:
REMARK  status: ('A' for Active; 'I' for Inactive)
REMARK    1  A    between atoms: _1  and  _3
REMARK    2  A    between atoms: _3  and  _4
REMARK    3  A    between atoms: _3  and  _6
REMARK    4  A    between atoms: _6  and  _7
REMARK    5  A    between atoms: _12  and  _14
REMARK    6  A    between atoms: _14  and  _15
REMARK    7  A    between atoms: _14  and  _17
REMARK    8  A    between atoms: _17  and  _18
REMARK    9  A    between atoms: _18  and  _19
REMARK   10  A    between atoms: _19  and  _20
REMARK   11  A    between atoms: _20  and  _21
REMARK   12  A    between atoms: _25  and  _27
REMARK   13  A    between atoms: _27  and  _28
REMARK   14  A    between atoms: _27  and  _30
REMARK   15  A    between atoms: _30  and  _31
REMARK   16  A    between atoms: _37  and  _39
REMARK   17  A    between atoms: _39  and  _40
REMARK   18  A    between atoms: _39  and  _42
REMARK   19  A    between atoms: _42  and  _43
REMARK   20  A    between atoms: _46  and  _48
REMARK   21  A    between atoms: _48  and  _49
REMARK   22  A    between atoms: _48  and  _51
REMARK   23  A    between atoms: _51  and  _52
REMARK   24  A    between atoms: _52  and  _54
REMARK   25  A    between atoms: _54  and  ZN_284
REMARK   26  A    between atoms: _55  and  _57
REMARK   27  A    between atoms: _57  and  _58
REMARK   28  A    between atoms: _57  and  _60
REMARK   29  A    between atoms: _60  and  _61
REMARK   30  A    between atoms: _63  and  _65
REMARK   31  A    between atoms: _65  and  _66
REMARK   32  A    between atoms: _65  and  _68
REMARK   33  A    between atoms: _68  and  _69
REMARK   34  A    between atoms: _69  and  _70
REMARK   35  A    between atoms: _73  and  _75
REMARK   36  A    between atoms: _75  and  _76
REMARK   37  A    between atoms: _75  and  _78
REMARK   38  A    between atoms: _78  and  _79
REMARK   39  A    between atoms: _79  and  _80
REMARK   40  A    between atoms: _80  and  _82
REMARK   41  A    between atoms: _82  and  ZN_284
REMARK   42  A    between atoms: _83  and  _85
REMARK   43  A    between atoms: _85  and  _86
REMARK   44  A    between atoms: _89  and  _91
REMARK   45  A    between atoms: _91  and  _92
REMARK   46  A    between atoms: _91  and  _94
REMARK   47  A    between atoms: _94  and  _95
REMARK   48  A    between atoms: _105  and  _107
REMARK   49  A    between atoms: _107  and  _108
REMARK   50  A    between atoms: _110  and  _112
REMARK   51  A    between atoms: _112  and  _113
REMARK   52  A    between atoms: _112  and  _115
REMARK   53  A    between atoms: _115  and  _116
REMARK   54  A    between atoms: _118  and  _120
REMARK   55  A    between atoms: _120  and  _121
REMARK   56  A    between atoms: _120  and  _123
REMARK   57  A    between atoms: _123  and  _124
REMARK   58  A    between atoms: _127  and  _129
REMARK   59  A    between atoms: _129  and  _130
REMARK   60  A    between atoms: _129  and  _132
REMARK   61  A    between atoms: _132  and  _133
REMARK   62  A    between atoms: _136  and  _138
REMARK   63  A    between atoms: _138  and  _139
REMARK   64  A    between atoms: _138  and  _141
REMARK   65  A    between atoms: _141  and  _142
REMARK   66  A    between atoms: _145  and  _147
REMARK   67  A    between atoms: _147  and  _148
REMARK   68  A    between atoms: _147  and  _150
REMARK   69  A    between atoms: _150  and  _151
REMARK   70  A    between atoms: _154  and  _156
REMARK   71  A    between atoms: _156  and  _157
REMARK   72  A    between atoms: _156  and  _159
REMARK   73  A    between atoms: _159  and  _160
REMARK   74  A    between atoms: _163  and  _165
REMARK   75  A    between atoms: _165  and  _166
REMARK   76  A    between atoms: _165  and  _168
REMARK   77  A    between atoms: _168  and  _169
REMARK   78  A    between atoms: _171  and  _173
REMARK   79  A    between atoms: _173  and  _174
REMARK   80  A    between atoms: _173  and  _176
REMARK   81  A    between atoms: _179  and  _181
REMARK   82  A    between atoms: _181  and  _182
REMARK   83  A    between atoms: _181  and  _184
REMARK   84  A    between atoms: _184  and  _185
REMARK   85  A    between atoms: _185  and  _186
REMARK   86  A    between atoms: _189  and  _191
REMARK   87  A    between atoms: _191  and  _192
REMARK   88  A    between atoms: _191  and  _194
REMARK   89  A    between atoms: _194  and  _195
REMARK   90  A    between atoms: _198  and  _200
REMARK   91  A    between atoms: _200  and  _201
REMARK   92  A    between atoms: _200  and  _203
REMARK   93  A    between atoms: _203  and  _204
REMARK   94  A    between atoms: _207  and  _209
REMARK   95  A    between atoms: _209  and  _210
REMARK   96  A    between atoms: _209  and  _212
REMARK   97  A    between atoms: _212  and  _213
REMARK   98  A    between atoms: _218  and  _220
REMARK   99  A    between atoms: _220  and  _221
REMARK  100  A    between atoms: _220  and  _223
REMARK  101  A    between atoms: _223  and  _224
REMARK  102  A    between atoms: _229  and  _231
REMARK  103  A    between atoms: _231  and  _232
REMARK  104  A    between atoms: _231  and  _234
REMARK  105  A    between atoms: _234  and  _235
REMARK  106  A    between atoms: _238  and  _240
REMARK  107  A    between atoms: _240  and  _241
REMARK  108  A    between atoms: _240  and  _243
REMARK  109  A    between atoms: _243  and  _244
REMARK  110  A    between atoms: _251  and  _252
REMARK  111  A    between atoms: _257  and  _259
REMARK  112  A    between atoms: _259  and  _260
REMARK  113  A    between atoms: _259  and  _262
REMARK  114  A    between atoms: _262  and  _263
REMARK  115  A    between atoms: _273  and  _275
REMARK  116  A    between atoms: _275  and  _276
REMARK  117  A    between atoms: _275  and  _278
REMARK  118  A    between atoms: _278  and  _279
REMARK  119  A    between atoms: _283  and  ZN_284
REMARK                            x       y       z     vdW  Elec       q    Type
REMARK                         _______ _______ _______ _____ _____    ______ ____
ROOT
ATOM      1  O   HOH     1      11.282   6.882 -11.185  0.00  0.00    +0.000 OA
ENDROOT
TORSDOF 0
REMARK  Name = ../refined-set-2016/3pb9/3pb9_pocket.pdb
REMARK  119 active torsions:
REMARK  status: ('A' for Active; 'I' for Inactive)
REMARK    1  A    between atoms: _1  and  _3
REMARK    2  A    between atoms: _3  and  _4
REMARK    3  A    between atoms: _3  and  _6
REMARK    4  A    between atoms: _6  and  _7
REMARK    5  A    between atoms: _12  and  _14
REMARK    6  A    between atoms: _14  and  _15
REMARK    7  A    between atoms: _14  and  _17
REMARK    8  A    between atoms: _17  and  _18
REMARK    9  A    between atoms: _18  and  _19
REMARK   10  A    between atoms: _19  and  _20
REMARK   11  A    between atoms: _20  and  _21
REMARK   12  A    between atoms: _25  and  _27
REMARK   13  A    between atoms: _27  and  _28
REMARK   14  A    between atoms: _27  and  _30
REMARK   15  A    between atoms: _30  and  _31
REMARK   16  A    between atoms: _37  and  _39
REMARK   17  A    between atoms: _39  and  _40
REMARK   18  A    between atoms: _39  and  _42
REMARK   19  A    between atoms: _42  and  _43
REMARK   20  A    between atoms: _46  and  _48
REMARK   21  A    between atoms: _48  and  _49
REMARK   22  A    between atoms: _48  and  _51
REMARK   23  A    between atoms: _51  and  _52
REMARK   24  A    between atoms: _52  and  _54
REMARK   25  A    between atoms: _54  and  ZN_284
REMARK   26  A    between atoms: _55  and  _57
REMARK   27  A    between atoms: _57  and  _58
REMARK   28  A    between atoms: _57  and  _60
REMARK   29  A    between atoms: _60  and  _61
REMARK   30  A    between atoms: _63  and  _65
REMARK   31  A    between atoms: _65  and  _66
REMARK   32  A    between atoms: _65  and  _68
REMARK   33  A    between atoms: _68  and  _69
REMARK   34  A    between atoms: _69  and  _70
REMARK   35  A    between atoms: _73  and  _75
REMARK   36  A    between atoms: _75  and  _76
REMARK   37  A    between atoms: _75  and  _78
REMARK   38  A    between atoms: _78  and  _79
REMARK   39  A    between atoms: _79  and  _80
REMARK   40  A    between atoms: _80  and  _82
REMARK   41  A    between atoms: _82  and  ZN_284
REMARK   42  A    between atoms: _83  and  _85
REMARK   43  A    between atoms: _85  and  _86
REMARK   44  A    between atoms: _89  and  _91
REMARK   45  A    between atoms: _91  and  _92
REMARK   46  A    between atoms: _91  and  _94
REMARK   47  A    between atoms: _94  and  _95
REMARK   48  A    between atoms: _105  and  _107
REMARK   49  A    between atoms: _107  and  _108
REMARK   50  A    between atoms: _110  and  _112
REMARK   51  A    between atoms: _112  and  _113
REMARK   52  A    between atoms: _112  and  _115
REMARK   53  A    between atoms: _115  and  _116
REMARK   54  A    between atoms: _118  and  _120
REMARK   55  A    between atoms: _120  and  _121
REMARK   56  A    between atoms: _120  and  _123
REMARK   57  A    between atoms: _123  and  _124
REMARK   58  A    between atoms: _127  and  _129
REMARK   59  A    between atoms: _129  and  _130
REMARK   60  A    between atoms: _129  and  _132
REMARK   61  A    between atoms: _132  and  _133
REMARK   62  A    between atoms: _136  and  _138
REMARK   63  A    between atoms: _138  and  _139
REMARK   64  A    between atoms: _138  and  _141
REMARK   65  A    between atoms: _141  and  _142
REMARK   66  A    between atoms: _145  and  _147
REMARK   67  A    between atoms: _147  and  _148
REMARK   68  A    between atoms: _147  and  _150
REMARK   69  A    between atoms: _150  and  _151
REMARK   70  A    between atoms: _154  and  _156
REMARK   71  A    between atoms: _156  and  _157
REMARK   72  A    between atoms: _156  and  _159
REMARK   73  A    between atoms: _159  and  _160
REMARK   74  A    between atoms: _163  and  _165
REMARK   75  A    between atoms: _165  and  _166
REMARK   76  A    between atoms: _165  and  _168
REMARK   77  A    between atoms: _168  and  _169
REMARK   78  A    between atoms: _171  and  _173
REMARK   79  A    between atoms: _173  and  _174
REMARK   80  A    between atoms: _173  and  _176
REMARK   81  A    between atoms: _179  and  _181
REMARK   82  A    between atoms: _181  and  _182
REMARK   83  A    between atoms: _181  and  _184
REMARK   84  A    between atoms: _184  and  _185
REMARK   85  A    between atoms: _185  and  _186
REMARK   86  A    between atoms: _189  and  _191
REMARK   87  A    between atoms: _191  and  _192
REMARK   88  A    between atoms: _191  and  _194
REMARK   89  A    between atoms: _194  and  _195
REMARK   90  A    between atoms: _198  and  _200
REMARK   91  A    between atoms: _200  and  _201
REMARK   92  A    between atoms: _200  and  _203
REMARK   93  A    between atoms: _203  and  _204
REMARK   94  A    between atoms: _207  and  _209
REMARK   95  A    between atoms: _209  and  _210
REMARK   96  A    between atoms: _209  and  _212
REMARK   97  A    between atoms: _212  and  _213
REMARK   98  A    between atoms: _218  and  _220
REMARK   99  A    between atoms: _220  and  _221
REMARK  100  A    between atoms: _220  and  _223
REMARK  101  A    between atoms: _223  and  _224
REMARK  102  A    between atoms: _229  and  _231
REMARK  103  A    between atoms: _231  and  _232
REMARK  104  A    between atoms: _231  and  _234
REMARK  105  A    between atoms: _234  and  _235
REMARK  106  A    between atoms: _238  and  _240
REMARK  107  A    between atoms: _240  and  _241
REMARK  108  A    between atoms: _240  and  _243
REMARK  109  A    between atoms: _243  and  _244
REMARK  110  A    between atoms: _251  and  _252
REMARK  111  A    between atoms: _257  and  _259
REMARK  112  A    between atoms: _259  and  _260
REMARK  113  A    between atoms: _259  and  _262
REMARK  114  A    between atoms: _262  and  _263
REMARK  115  A    between atoms: _273  and  _275
REMARK  116  A    between atoms: _275  and  _276
REMARK  117  A    between atoms: _275  and  _278
REMARK  118  A    between atoms: _278  and  _279
REMARK  119  A    between atoms: _283  and  ZN_284
REMARK                            x       y       z     vdW  Elec       q    Type
REMARK                         _______ _______ _______ _____ _____    ______ ____
ROOT
ATOM      1  O   HOH     1      12.774   8.056 -13.169  0.00  0.00    +0.000 OA
ENDROOT
TORSDOF 0
REMARK  Name = ../refined-set-2016/3pb9/3pb9_pocket.pdb
REMARK  119 active torsions:
REMARK  status: ('A' for Active; 'I' for Inactive)
REMARK    1  A    between atoms: _1  and  _3
REMARK    2  A    between atoms: _3  and  _4
REMARK    3  A    between atoms: _3  and  _6
REMARK    4  A    between atoms: _6  and  _7
REMARK    5  A    between atoms: _12  and  _14
REMARK    6  A    between atoms: _14  and  _15
REMARK    7  A    between atoms: _14  and  _17
REMARK    8  A    between atoms: _17  and  _18
REMARK    9  A    between atoms: _18  and  _19
REMARK   10  A    between atoms: _19  and  _20
REMARK   11  A    between atoms: _20  and  _21
REMARK   12  A    between atoms: _25  and  _27
REMARK   13  A    between atoms: _27  and  _28
REMARK   14  A    between atoms: _27  and  _30
REMARK   15  A    between atoms: _30  and  _31
REMARK   16  A    between atoms: _37  and  _39
REMARK   17  A    between atoms: _39  and  _40
REMARK   18  A    between atoms: _39  and  _42
REMARK   19  A    between atoms: _42  and  _43
REMARK   20  A    between atoms: _46  and  _48
REMARK   21  A    between atoms: _48  and  _49
REMARK   22  A    between atoms: _48  and  _51
REMARK   23  A    between atoms: _51  and  _52
REMARK   24  A    between atoms: _52  and  _54
REMARK   25  A    between atoms: _54  and  ZN_284
REMARK   26  A    between atoms: _55  and  _57
REMARK   27  A    between atoms: _57  and  _58
REMARK   28  A    between atoms: _57  and  _60
REMARK   29  A    between atoms: _60  and  _61
REMARK   30  A    between atoms: _63  and  _65
REMARK   31  A    between atoms: _65  and  _66
REMARK   32  A    between atoms: _65  and  _68
REMARK   33  A    between atoms: _68  and  _69
REMARK   34  A    between atoms: _69  and  _70
REMARK   35  A    between atoms: _73  and  _75
REMARK   36  A    between atoms: _75  and  _76
REMARK   37  A    between atoms: _75  and  _78
REMARK   38  A    between atoms: _78  and  _79
REMARK   39  A    between atoms: _79  and  _80
REMARK   40  A    between atoms: _80  and  _82
REMARK   41  A    between atoms: _82  and  ZN_284
REMARK   42  A    between atoms: _83  and  _85
REMARK   43  A    between atoms: _85  and  _86
REMARK   44  A    between atoms: _89  and  _91
REMARK   45  A    between atoms: _91  and  _92
REMARK   46  A    between atoms: _91  and  _94
REMARK   47  A    between atoms: _94  and  _95
REMARK   48  A    between atoms: _105  and  _107
REMARK   49  A    between atoms: _107  and  _108
REMARK   50  A    between atoms: _110  and  _112
REMARK   51  A    between atoms: _112  and  _113
REMARK   52  A    between atoms: _112  and  _115
REMARK   53  A    between atoms: _115  and  _116
REMARK   54  A    between atoms: _118  and  _120
REMARK   55  A    between atoms: _120  and  _121
REMARK   56  A    between atoms: _120  and  _123
REMARK   57  A    between atoms: _123  and  _124
REMARK   58  A    between atoms: _127  and  _129
REMARK   59  A    between atoms: _129  and  _130
REMARK   60  A    between atoms: _129  and  _132
REMARK   61  A    between atoms: _132  and  _133
REMARK   62  A    between atoms: _136  and  _138
REMARK   63  A    between atoms: _138  and  _139
REMARK   64  A    between atoms: _138  and  _141
REMARK   65  A    between atoms: _141  and  _142
REMARK   66  A    between atoms: _145  and  _147
REMARK   67  A    between atoms: _147  and  _148
REMARK   68  A    between atoms: _147  and  _150
REMARK   69  A    between atoms: _150  and  _151
REMARK   70  A    between atoms: _154  and  _156
REMARK   71  A    between atoms: _156  and  _157
REMARK   72  A    between atoms: _156  and  _159
REMARK   73  A    between atoms: _159  and  _160
REMARK   74  A    between atoms: _163  and  _165
REMARK   75  A    between atoms: _165  and  _166
REMARK   76  A    between atoms: _165  and  _168
REMARK   77  A    between atoms: _168  and  _169
REMARK   78  A    between atoms: _171  and  _173
REMARK   79  A    between atoms: _173  and  _174
REMARK   80  A    between atoms: _173  and  _176
REMARK   81  A    between atoms: _179  and  _181
REMARK   82  A    between atoms: _181  and  _182
REMARK   83  A    between atoms: _181  and  _184
REMARK   84  A    between atoms: _184  and  _185
REMARK   85  A    between atoms: _185  and  _186
REMARK   86  A    between atoms: _189  and  _191
REMARK   87  A    between atoms: _191  and  _192
REMARK   88  A    between atoms: _191  and  _194
REMARK   89  A    between atoms: _194  and  _195
REMARK   90  A    between atoms: _198  and  _200
REMARK   91  A    between atoms: _200  and  _201
REMARK   92  A    between atoms: _200  and  _203
REMARK   93  A    between atoms: _203  and  _204
REMARK   94  A    between atoms: _207  and  _209
REMARK   95  A    between atoms: _209  and  _210
REMARK   96  A    between atoms: _209  and  _212
REMARK   97  A    between atoms: _212  and  _213
REMARK   98  A    between atoms: _218  and  _220
REMARK   99  A    between atoms: _220  and  _221
REMARK  100  A    between atoms: _220  and  _223
REMARK  101  A    between atoms: _223  and  _224
REMARK  102  A    between atoms: _229  and  _231
REMARK  103  A    between atoms: _231  and  _232
REMARK  104  A    between atoms: _231  and  _234
REMARK  105  A    between atoms: _234  and  _235
REMARK  106  A    between atoms: _238  and  _240
REMARK  107  A    between atoms: _240  and  _241
REMARK  108  A    between atoms: _240  and  _243
REMARK  109  A    between atoms: _243  and  _244
REMARK  110  A    between atoms: _251  and  _252
REMARK  111  A    between atoms: _257  and  _259
REMARK  112  A    between atoms: _259  and  _260
REMARK  113  A    between atoms: _259  and  _262
REMARK  114  A    between atoms: _262  and  _263
REMARK  115  A    between atoms: _273  and  _275
REMARK  116  A    between atoms: _275  and  _276
REMARK  117  A    between atoms: _275  and  _278
REMARK  118  A    between atoms: _278  and  _279
REMARK  119  A    between atoms: _283  and  ZN_284
REMARK                            x       y       z     vdW  Elec       q    Type
REMARK                         _______ _______ _______ _____ _____    ______ ____
ROOT
ATOM      1  O   HOH     1       9.791  14.138  -7.552  0.00  0.00    +0.000 OA
ENDROOT
TORSDOF 0
REMARK  Name = ../refined-set-2016/3pb9/3pb9_pocket.pdb
REMARK  119 active torsions:
REMARK  status: ('A' for Active; 'I' for Inactive)
REMARK    1  A    between atoms: _1  and  _3
REMARK    2  A    between atoms: _3  and  _4
REMARK    3  A    between atoms: _3  and  _6
REMARK    4  A    between atoms: _6  and  _7
REMARK    5  A    between atoms: _12  and  _14
REMARK    6  A    between atoms: _14  and  _15
REMARK    7  A    between atoms: _14  and  _17
REMARK    8  A    between atoms: _17  and  _18
REMARK    9  A    between atoms: _18  and  _19
REMARK   10  A    between atoms: _19  and  _20
REMARK   11  A    between atoms: _20  and  _21
REMARK   12  A    between atoms: _25  and  _27
REMARK   13  A    between atoms: _27  and  _28
REMARK   14  A    between atoms: _27  and  _30
REMARK   15  A    between atoms: _30  and  _31
REMARK   16  A    between atoms: _37  and  _39
REMARK   17  A    between atoms: _39  and  _40
REMARK   18  A    between atoms: _39  and  _42
REMARK   19  A    between atoms: _42  and  _43
REMARK   20  A    between atoms: _46  and  _48
REMARK   21  A    between atoms: _48  and  _49
REMARK   22  A    between atoms: _48  and  _51
REMARK   23  A    between atoms: _51  and  _52
REMARK   24  A    between atoms: _52  and  _54
REMARK   25  A    between atoms: _54  and  ZN_284
REMARK   26  A    between atoms: _55  and  _57
REMARK   27  A    between atoms: _57  and  _58
REMARK   28  A    between atoms: _57  and  _60
REMARK   29  A    between atoms: _60  and  _61
REMARK   30  A    between atoms: _63  and  _65
REMARK   31  A    between atoms: _65  and  _66
REMARK   32  A    between atoms: _65  and  _68
REMARK   33  A    between atoms: _68  and  _69
REMARK   34  A    between atoms: _69  and  _70
REMARK   35  A    between atoms: _73  and  _75
REMARK   36  A    between atoms: _75  and  _76
REMARK   37  A    between atoms: _75  and  _78
REMARK   38  A    between atoms: _78  and  _79
REMARK   39  A    between atoms: _79  and  _80
REMARK   40  A    between atoms: _80  and  _82
REMARK   41  A    between atoms: _82  and  ZN_284
REMARK   42  A    between atoms: _83  and  _85
REMARK   43  A    between atoms: _85  and  _86
REMARK   44  A    between atoms: _89  and  _91
REMARK   45  A    between atoms: _91  and  _92
REMARK   46  A    between atoms: _91  and  _94
REMARK   47  A    between atoms: _94  and  _95
REMARK   48  A    between atoms: _105  and  _107
REMARK   49  A    between atoms: _107  and  _108
REMARK   50  A    between atoms: _110  and  _112
REMARK   51  A    between atoms: _112  and  _113
REMARK   52  A    between atoms: _112  and  _115
REMARK   53  A    between atoms: _115  and  _116
REMARK   54  A    between atoms: _118  and  _120
REMARK   55  A    between atoms: _120  and  _121
REMARK   56  A    between atoms: _120  and  _123
REMARK   57  A    between atoms: _123  and  _124
REMARK   58  A    between atoms: _127  and  _129
REMARK   59  A    between atoms: _129  and  _130
REMARK   60  A    between atoms: _129  and  _132
REMARK   61  A    between atoms: _132  and  _133
REMARK   62  A    between atoms: _136  and  _138
REMARK   63  A    between atoms: _138  and  _139
REMARK   64  A    between atoms: _138  and  _141
REMARK   65  A    between atoms: _141  and  _142
REMARK   66  A    between atoms: _145  and  _147
REMARK   67  A    between atoms: _147  and  _148
REMARK   68  A    between atoms: _147  and  _150
REMARK   69  A    between atoms: _150  and  _151
REMARK   70  A    between atoms: _154  and  _156
REMARK   71  A    between atoms: _156  and  _157
REMARK   72  A    between atoms: _156  and  _159
REMARK   73  A    between atoms: _159  and  _160
REMARK   74  A    between atoms: _163  and  _165
REMARK   75  A    between atoms: _165  and  _166
REMARK   76  A    between atoms: _165  and  _168
REMARK   77  A    between atoms: _168  and  _169
REMARK   78  A    between atoms: _171  and  _173
REMARK   79  A    between atoms: _173  and  _174
REMARK   80  A    between atoms: _173  and  _176
REMARK   81  A    between atoms: _179  and  _181
REMARK   82  A    between atoms: _181  and  _182
REMARK   83  A    between atoms: _181  and  _184
REMARK   84  A    between atoms: _184  and  _185
REMARK   85  A    between atoms: _185  and  _186
REMARK   86  A    between atoms: _189  and  _191
REMARK   87  A    between atoms: _191  and  _192
REMARK   88  A    between atoms: _191  and  _194
REMARK   89  A    between atoms: _194  and  _195
REMARK   90  A    between atoms: _198  and  _200
REMARK   91  A    between atoms: _200  and  _201
REMARK   92  A    between atoms: _200  and  _203
REMARK   93  A    between atoms: _203  and  _204
REMARK   94  A    between atoms: _207  and  _209
REMARK   95  A    between atoms: _209  and  _210
REMARK   96  A    between atoms: _209  and  _212
REMARK   97  A    between atoms: _212  and  _213
REMARK   98  A    between atoms: _218  and  _220
REMARK   99  A    between atoms: _220  and  _221
REMARK  100  A    between atoms: _220  and  _223
REMARK  101  A    between atoms: _223  and  _224
REMARK  102  A    between atoms: _229  and  _231
REMARK  103  A    between atoms: _231  and  _232
REMARK  104  A    between atoms: _231  and  _234
REMARK  105  A    between atoms: _234  and  _235
REMARK  106  A    between atoms: _238  and  _240
REMARK  107  A    between atoms: _240  and  _241
REMARK  108  A    between atoms: _240  and  _243
REMARK  109  A    between atoms: _243  and  _244
REMARK  110  A    between atoms: _251  and  _252
REMARK  111  A    between atoms: _257  and  _259
REMARK  112  A    between atoms: _259  and  _260
REMARK  113  A    between atoms: _259  and  _262
REMARK  114  A    between atoms: _262  and  _263
REMARK  115  A    between atoms: _273  and  _275
REMARK  116  A    between atoms: _275  and  _276
REMARK  117  A    between atoms: _275  and  _278
REMARK  118  A    between atoms: _278  and  _279
REMARK  119  A    between atoms: _283  and  ZN_284
REMARK                            x       y       z     vdW  Elec       q    Type
REMARK                         _______ _______ _______ _____ _____    ______ ____
ROOT
ATOM      1  O   HOH     1      10.863  18.213 -13.132  0.00  0.00    +0.000 OA
ENDROOT
TORSDOF 0
REMARK  Name = ../refined-set-2016/3pb9/3pb9_pocket.pdb
REMARK  119 active torsions:
REMARK  status: ('A' for Active; 'I' for Inactive)
REMARK    1  A    between atoms: _1  and  _3
REMARK    2  A    between atoms: _3  and  _4
REMARK    3  A    between atoms: _3  and  _6
REMARK    4  A    between atoms: _6  and  _7
REMARK    5  A    between atoms: _12  and  _14
REMARK    6  A    between atoms: _14  and  _15
REMARK    7  A    between atoms: _14  and  _17
REMARK    8  A    between atoms: _17  and  _18
REMARK    9  A    between atoms: _18  and  _19
REMARK   10  A    between atoms: _19  and  _20
REMARK   11  A    between atoms: _20  and  _21
REMARK   12  A    between atoms: _25  and  _27
REMARK   13  A    between atoms: _27  and  _28
REMARK   14  A    between atoms: _27  and  _30
REMARK   15  A    between atoms: _30  and  _31
REMARK   16  A    between atoms: _37  and  _39
REMARK   17  A    between atoms: _39  and  _40
REMARK   18  A    between atoms: _39  and  _42
REMARK   19  A    between atoms: _42  and  _43
REMARK   20  A    between atoms: _46  and  _48
REMARK   21  A    between atoms: _48  and  _49
REMARK   22  A    between atoms: _48  and  _51
REMARK   23  A    between atoms: _51  and  _52
REMARK   24  A    between atoms: _52  and  _54
REMARK   25  A    between atoms: _54  and  ZN_284
REMARK   26  A    between atoms: _55  and  _57
REMARK   27  A    between atoms: _57  and  _58
REMARK   28  A    between atoms: _57  and  _60
REMARK   29  A    between atoms: _60  and  _61
REMARK   30  A    between atoms: _63  and  _65
REMARK   31  A    between atoms: _65  and  _66
REMARK   32  A    between atoms: _65  and  _68
REMARK   33  A    between atoms: _68  and  _69
REMARK   34  A    between atoms: _69  and  _70
REMARK   35  A    between atoms: _73  and  _75
REMARK   36  A    between atoms: _75  and  _76
REMARK   37  A    between atoms: _75  and  _78
REMARK   38  A    between atoms: _78  and  _79
REMARK   39  A    between atoms: _79  and  _80
REMARK   40  A    between atoms: _80  and  _82
REMARK   41  A    between atoms: _82  and  ZN_284
REMARK   42  A    between atoms: _83  and  _85
REMARK   43  A    between atoms: _85  and  _86
REMARK   44  A    between atoms: _89  and  _91
REMARK   45  A    between atoms: _91  and  _92
REMARK   46  A    between atoms: _91  and  _94
REMARK   47  A    between atoms: _94  and  _95
REMARK   48  A    between atoms: _105  and  _107
REMARK   49  A    between atoms: _107  and  _108
REMARK   50  A    between atoms: _110  and  _112
REMARK   51  A    between atoms: _112  and  _113
REMARK   52  A    between atoms: _112  and  _115
REMARK   53  A    between atoms: _115  and  _116
REMARK   54  A    between atoms: _118  and  _120
REMARK   55  A    between atoms: _120  and  _121
REMARK   56  A    between atoms: _120  and  _123
REMARK   57  A    between atoms: _123  and  _124
REMARK   58  A    between atoms: _127  and  _129
REMARK   59  A    between atoms: _129  and  _130
REMARK   60  A    between atoms: _129  and  _132
REMARK   61  A    between atoms: _132  and  _133
REMARK   62  A    between atoms: _136  and  _138
REMARK   63  A    between atoms: _138  and  _139
REMARK   64  A    between atoms: _138  and  _141
REMARK   65  A    between atoms: _141  and  _142
REMARK   66  A    between atoms: _145  and  _147
REMARK   67  A    between atoms: _147  and  _148
REMARK   68  A    between atoms: _147  and  _150
REMARK   69  A    between atoms: _150  and  _151
REMARK   70  A    between atoms: _154  and  _156
REMARK   71  A    between atoms: _156  and  _157
REMARK   72  A    between atoms: _156  and  _159
REMARK   73  A    between atoms: _159  and  _160
REMARK   74  A    between atoms: _163  and  _165
REMARK   75  A    between atoms: _165  and  _166
REMARK   76  A    between atoms: _165  and  _168
REMARK   77  A    between atoms: _168  and  _169
REMARK   78  A    between atoms: _171  and  _173
REMARK   79  A    between atoms: _173  and  _174
REMARK   80  A    between atoms: _173  and  _176
REMARK   81  A    between atoms: _179  and  _181
REMARK   82  A    between atoms: _181  and  _182
REMARK   83  A    between atoms: _181  and  _184
REMARK   84  A    between atoms: _184  and  _185
REMARK   85  A    between atoms: _185  and  _186
REMARK   86  A    between atoms: _189  and  _191
REMARK   87  A    between atoms: _191  and  _192
REMARK   88  A    between atoms: _191  and  _194
REMARK   89  A    between atoms: _194  and  _195
REMARK   90  A    between atoms: _198  and  _200
REMARK   91  A    between atoms: _200  and  _201
REMARK   92  A    between atoms: _200  and  _203
REMARK   93  A    between atoms: _203  and  _204
REMARK   94  A    between atoms: _207  and  _209
REMARK   95  A    between atoms: _209  and  _210
REMARK   96  A    between atoms: _209  and  _212
REMARK   97  A    between atoms: _212  and  _213
REMARK   98  A    between atoms: _218  and  _220
REMARK   99  A    between atoms: _220  and  _221
REMARK  100  A    between atoms: _220  and  _223
REMARK  101  A    between atoms: _223  and  _224
REMARK  102  A    between atoms: _229  and  _231
REMARK  103  A    between atoms: _231  and  _232
REMARK  104  A    between atoms: _231  and  _234
REMARK  105  A    between atoms: _234  and  _235
REMARK  106  A    between atoms: _238  and  _240
REMARK  107  A    between atoms: _240  and  _241
REMARK  108  A    between atoms: _240  and  _243
REMARK  109  A    between atoms: _243  and  _244
REMARK  110  A    between atoms: _251  and  _252
REMARK  111  A    between atoms: _257  and  _259
REMARK  112  A    between atoms: _259  and  _260
REMARK  113  A    between atoms: _259  and  _262
REMARK  114  A    between atoms: _262  and  _263
REMARK  115  A    between atoms: _273  and  _275
REMARK  116  A    between atoms: _275  and  _276
REMARK  117  A    between atoms: _275  and  _278
REMARK  118  A    between atoms: _278  and  _279
REMARK  119  A    between atoms: _283  and  ZN_284
REMARK                            x       y       z     vdW  Elec       q    Type
REMARK                         _______ _______ _______ _____ _____    ______ ____
ROOT
ATOM      1  O   HOH     1      -0.965  12.957 -18.124  0.00  0.00    +0.000 OA
ENDROOT
TORSDOF 0
REMARK  Name = ../refined-set-2016/3pb9/3pb9_pocket.pdb
REMARK  119 active torsions:
REMARK  status: ('A' for Active; 'I' for Inactive)
REMARK    1  A    between atoms: _1  and  _3
REMARK    2  A    between atoms: _3  and  _4
REMARK    3  A    between atoms: _3  and  _6
REMARK    4  A    between atoms: _6  and  _7
REMARK    5  A    between atoms: _12  and  _14
REMARK    6  A    between atoms: _14  and  _15
REMARK    7  A    between atoms: _14  and  _17
REMARK    8  A    between atoms: _17  and  _18
REMARK    9  A    between atoms: _18  and  _19
REMARK   10  A    between atoms: _19  and  _20
REMARK   11  A    between atoms: _20  and  _21
REMARK   12  A    between atoms: _25  and  _27
REMARK   13  A    between atoms: _27  and  _28
REMARK   14  A    between atoms: _27  and  _30
REMARK   15  A    between atoms: _30  and  _31
REMARK   16  A    between atoms: _37  and  _39
REMARK   17  A    between atoms: _39  and  _40
REMARK   18  A    between atoms: _39  and  _42
REMARK   19  A    between atoms: _42  and  _43
REMARK   20  A    between atoms: _46  and  _48
REMARK   21  A    between atoms: _48  and  _49
REMARK   22  A    between atoms: _48  and  _51
REMARK   23  A    between atoms: _51  and  _52
REMARK   24  A    between atoms: _52  and  _54
REMARK   25  A    between atoms: _54  and  ZN_284
REMARK   26  A    between atoms: _55  and  _57
REMARK   27  A    between atoms: _57  and  _58
REMARK   28  A    between atoms: _57  and  _60
REMARK   29  A    between atoms: _60  and  _61
REMARK   30  A    between atoms: _63  and  _65
REMARK   31  A    between atoms: _65  and  _66
REMARK   32  A    between atoms: _65  and  _68
REMARK   33  A    between atoms: _68  and  _69
REMARK   34  A    between atoms: _69  and  _70
REMARK   35  A    between atoms: _73  and  _75
REMARK   36  A    between atoms: _75  and  _76
REMARK   37  A    between atoms: _75  and  _78
REMARK   38  A    between atoms: _78  and  _79
REMARK   39  A    between atoms: _79  and  _80
REMARK   40  A    between atoms: _80  and  _82
REMARK   41  A    between atoms: _82  and  ZN_284
REMARK   42  A    between atoms: _83  and  _85
REMARK   43  A    between atoms: _85  and  _86
REMARK   44  A    between atoms: _89  and  _91
REMARK   45  A    between atoms: _91  and  _92
REMARK   46  A    between atoms: _91  and  _94
REMARK   47  A    between atoms: _94  and  _95
REMARK   48  A    between atoms: _105  and  _107
REMARK   49  A    between atoms: _107  and  _108
REMARK   50  A    between atoms: _110  and  _112
REMARK   51  A    between atoms: _112  and  _113
REMARK   52  A    between atoms: _112  and  _115
REMARK   53  A    between atoms: _115  and  _116
REMARK   54  A    between atoms: _118  and  _120
REMARK   55  A    between atoms: _120  and  _121
REMARK   56  A    between atoms: _120  and  _123
REMARK   57  A    between atoms: _123  and  _124
REMARK   58  A    between atoms: _127  and  _129
REMARK   59  A    between atoms: _129  and  _130
REMARK   60  A    between atoms: _129  and  _132
REMARK   61  A    between atoms: _132  and  _133
REMARK   62  A    between atoms: _136  and  _138
REMARK   63  A    between atoms: _138  and  _139
REMARK   64  A    between atoms: _138  and  _141
REMARK   65  A    between atoms: _141  and  _142
REMARK   66  A    between atoms: _145  and  _147
REMARK   67  A    between atoms: _147  and  _148
REMARK   68  A    between atoms: _147  and  _150
REMARK   69  A    between atoms: _150  and  _151
REMARK   70  A    between atoms: _154  and  _156
REMARK   71  A    between atoms: _156  and  _157
REMARK   72  A    between atoms: _156  and  _159
REMARK   73  A    between atoms: _159  and  _160
REMARK   74  A    between atoms: _163  and  _165
REMARK   75  A    between atoms: _165  and  _166
REMARK   76  A    between atoms: _165  and  _168
REMARK   77  A    between atoms: _168  and  _169
REMARK   78  A    between atoms: _171  and  _173
REMARK   79  A    between atoms: _173  and  _174
REMARK   80  A    between atoms: _173  and  _176
REMARK   81  A    between atoms: _179  and  _181
REMARK   82  A    between atoms: _181  and  _182
REMARK   83  A    between atoms: _181  and  _184
REMARK   84  A    between atoms: _184  and  _185
REMARK   85  A    between atoms: _185  and  _186
REMARK   86  A    between atoms: _189  and  _191
REMARK   87  A    between atoms: _191  and  _192
REMARK   88  A    between atoms: _191  and  _194
REMARK   89  A    between atoms: _194  and  _195
REMARK   90  A    between atoms: _198  and  _200
REMARK   91  A    between atoms: _200  and  _201
REMARK   92  A    between atoms: _200  and  _203
REMARK   93  A    between atoms: _203  and  _204
REMARK   94  A    between atoms: _207  and  _209
REMARK   95  A    between atoms: _209  and  _210
REMARK   96  A    between atoms: _209  and  _212
REMARK   97  A    between atoms: _212  and  _213
REMARK   98  A    between atoms: _218  and  _220
REMARK   99  A    between atoms: _220  and  _221
REMARK  100  A    between atoms: _220  and  _223
REMARK  101  A    between atoms: _223  and  _224
REMARK  102  A    between atoms: _229  and  _231
REMARK  103  A    between atoms: _231  and  _232
REMARK  104  A    between atoms: _231  and  _234
REMARK  105  A    between atoms: _234  and  _235
REMARK  106  A    between atoms: _238  and  _240
REMARK  107  A    between atoms: _240  and  _241
REMARK  108  A    between atoms: _240  and  _243
REMARK  109  A    between atoms: _243  and  _244
REMARK  110  A    between atoms: _251  and  _252
REMARK  111  A    between atoms: _257  and  _259
REMARK  112  A    between atoms: _259  and  _260
REMARK  113  A    between atoms: _259  and  _262
REMARK  114  A    between atoms: _262  and  _263
REMARK  115  A    between atoms: _273  and  _275
REMARK  116  A    between atoms: _275  and  _276
REMARK  117  A    between atoms: _275  and  _278
REMARK  118  A    between atoms: _278  and  _279
REMARK  119  A    between atoms: _283  and  ZN_284
REMARK                            x       y       z     vdW  Elec       q    Type
REMARK                         _______ _______ _______ _____ _____    ______ ____
ROOT
ATOM      1  O   HOH     1       8.164  14.299 -21.365  0.00  0.00    +0.000 OA
ENDROOT
TORSDOF 0
REMARK  Name = ../refined-set-2016/3pb9/3pb9_pocket.pdb
REMARK  119 active torsions:
REMARK  status: ('A' for Active; 'I' for Inactive)
REMARK    1  A    between atoms: _1  and  _3
REMARK    2  A    between atoms: _3  and  _4
REMARK    3  A    between atoms: _3  and  _6
REMARK    4  A    between atoms: _6  and  _7
REMARK    5  A    between atoms: _12  and  _14
REMARK    6  A    between atoms: _14  and  _15
REMARK    7  A    between atoms: _14  and  _17
REMARK    8  A    between atoms: _17  and  _18
REMARK    9  A    between atoms: _18  and  _19
REMARK   10  A    between atoms: _19  and  _20
REMARK   11  A    between atoms: _20  and  _21
REMARK   12  A    between atoms: _25  and  _27
REMARK   13  A    between atoms: _27  and  _28
REMARK   14  A    between atoms: _27  and  _30
REMARK   15  A    between atoms: _30  and  _31
REMARK   16  A    between atoms: _37  and  _39
REMARK   17  A    between atoms: _39  and  _40
REMARK   18  A    between atoms: _39  and  _42
REMARK   19  A    between atoms: _42  and  _43
REMARK   20  A    between atoms: _46  and  _48
REMARK   21  A    between atoms: _48  and  _49
REMARK   22  A    between atoms: _48  and  _51
REMARK   23  A    between atoms: _51  and  _52
REMARK   24  A    between atoms: _52  and  _54
REMARK   25  A    between atoms: _54  and  ZN_284
REMARK   26  A    between atoms: _55  and  _57
REMARK   27  A    between atoms: _57  and  _58
REMARK   28  A    between atoms: _57  and  _60
REMARK   29  A    between atoms: _60  and  _61
REMARK   30  A    between atoms: _63  and  _65
REMARK   31  A    between atoms: _65  and  _66
REMARK   32  A    between atoms: _65  and  _68
REMARK   33  A    between atoms: _68  and  _69
REMARK   34  A    between atoms: _69  and  _70
REMARK   35  A    between atoms: _73  and  _75
REMARK   36  A    between atoms: _75  and  _76
REMARK   37  A    between atoms: _75  and  _78
REMARK   38  A    between atoms: _78  and  _79
REMARK   39  A    between atoms: _79  and  _80
REMARK   40  A    between atoms: _80  and  _82
REMARK   41  A    between atoms: _82  and  ZN_284
REMARK   42  A    between atoms: _83  and  _85
REMARK   43  A    between atoms: _85  and  _86
REMARK   44  A    between atoms: _89  and  _91
REMARK   45  A    between atoms: _91  and  _92
REMARK   46  A    between atoms: _91  and  _94
REMARK   47  A    between atoms: _94  and  _95
REMARK   48  A    between atoms: _105  and  _107
REMARK   49  A    between atoms: _107  and  _108
REMARK   50  A    between atoms: _110  and  _112
REMARK   51  A    between atoms: _112  and  _113
REMARK   52  A    between atoms: _112  and  _115
REMARK   53  A    between atoms: _115  and  _116
REMARK   54  A    between atoms: _118  and  _120
REMARK   55  A    between atoms: _120  and  _121
REMARK   56  A    between atoms: _120  and  _123
REMARK   57  A    between atoms: _123  and  _124
REMARK   58  A    between atoms: _127  and  _129
REMARK   59  A    between atoms: _129  and  _130
REMARK   60  A    between atoms: _129  and  _132
REMARK   61  A    between atoms: _132  and  _133
REMARK   62  A    between atoms: _136  and  _138
REMARK   63  A    between atoms: _138  and  _139
REMARK   64  A    between atoms: _138  and  _141
REMARK   65  A    between atoms: _141  and  _142
REMARK   66  A    between atoms: _145  and  _147
REMARK   67  A    between atoms: _147  and  _148
REMARK   68  A    between atoms: _147  and  _150
REMARK   69  A    between atoms: _150  and  _151
REMARK   70  A    between atoms: _154  and  _156
REMARK   71  A    between atoms: _156  and  _157
REMARK   72  A    between atoms: _156  and  _159
REMARK   73  A    between atoms: _159  and  _160
REMARK   74  A    between atoms: _163  and  _165
REMARK   75  A    between atoms: _165  and  _166
REMARK   76  A    between atoms: _165  and  _168
REMARK   77  A    between atoms: _168  and  _169
REMARK   78  A    between atoms: _171  and  _173
REMARK   79  A    between atoms: _173  and  _174
REMARK   80  A    between atoms: _173  and  _176
REMARK   81  A    between atoms: _179  and  _181
REMARK   82  A    between atoms: _181  and  _182
REMARK   83  A    between atoms: _181  and  _184
REMARK   84  A    between atoms: _184  and  _185
REMARK   85  A    between atoms: _185  and  _186
REMARK   86  A    between atoms: _189  and  _191
REMARK   87  A    between atoms: _191  and  _192
REMARK   88  A    between atoms: _191  and  _194
REMARK   89  A    between atoms: _194  and  _195
REMARK   90  A    between atoms: _198  and  _200
REMARK   91  A    between atoms: _200  and  _201
REMARK   92  A    between atoms: _200  and  _203
REMARK   93  A    between atoms: _203  and  _204
REMARK   94  A    between atoms: _207  and  _209
REMARK   95  A    between atoms: _209  and  _210
REMARK   96  A    between atoms: _209  and  _212
REMARK   97  A    between atoms: _212  and  _213
REMARK   98  A    between atoms: _218  and  _220
REMARK   99  A    between atoms: _220  and  _221
REMARK  100  A    between atoms: _220  and  _223
REMARK  101  A    between atoms: _223  and  _224
REMARK  102  A    between atoms: _229  and  _231
REMARK  103  A    between atoms: _231  and  _232
REMARK  104  A    between atoms: _231  and  _234
REMARK  105  A    between atoms: _234  and  _235
REMARK  106  A    between atoms: _238  and  _240
REMARK  107  A    between atoms: _240  and  _241
REMARK  108  A    between atoms: _240  and  _243
REMARK  109  A    between atoms: _243  and  _244
REMARK  110  A    between atoms: _251  and  _252
REMARK  111  A    between atoms: _257  and  _259
REMARK  112  A    between atoms: _259  and  _260
REMARK  113  A    between atoms: _259  and  _262
REMARK  114  A    between atoms: _262  and  _263
REMARK  115  A    between atoms: _273  and  _275
REMARK  116  A    between atoms: _275  and  _276
REMARK  117  A    between atoms: _275  and  _278
REMARK  118  A    between atoms: _278  and  _279
REMARK  119  A    between atoms: _283  and  ZN_284
REMARK                            x       y       z     vdW  Elec       q    Type
REMARK                         _______ _______ _______ _____ _____    ______ ____
ROOT
ATOM      1  O   HOH     1       8.830  17.478 -15.276  0.00  0.00    +0.000 OA
ENDROOT
TORSDOF 0
REMARK  Name = ../refined-set-2016/3pb9/3pb9_pocket.pdb
REMARK  119 active torsions:
REMARK  status: ('A' for Active; 'I' for Inactive)
REMARK    1  A    between atoms: _1  and  _3
REMARK    2  A    between atoms: _3  and  _4
REMARK    3  A    between atoms: _3  and  _6
REMARK    4  A    between atoms: _6  and  _7
REMARK    5  A    between atoms: _12  and  _14
REMARK    6  A    between atoms: _14  and  _15
REMARK    7  A    between atoms: _14  and  _17
REMARK    8  A    between atoms: _17  and  _18
REMARK    9  A    between atoms: _18  and  _19
REMARK   10  A    between atoms: _19  and  _20
REMARK   11  A    between atoms: _20  and  _21
REMARK   12  A    between atoms: _25  and  _27
REMARK   13  A    between atoms: _27  and  _28
REMARK   14  A    between atoms: _27  and  _30
REMARK   15  A    between atoms: _30  and  _31
REMARK   16  A    between atoms: _37  and  _39
REMARK   17  A    between atoms: _39  and  _40
REMARK   18  A    between atoms: _39  and  _42
REMARK   19  A    between atoms: _42  and  _43
REMARK   20  A    between atoms: _46  and  _48
REMARK   21  A    between atoms: _48  and  _49
REMARK   22  A    between atoms: _48  and  _51
REMARK   23  A    between atoms: _51  and  _52
REMARK   24  A    between atoms: _52  and  _54
REMARK   25  A    between atoms: _54  and  ZN_284
REMARK   26  A    between atoms: _55  and  _57
REMARK   27  A    between atoms: _57  and  _58
REMARK   28  A    between atoms: _57  and  _60
REMARK   29  A    between atoms: _60  and  _61
REMARK   30  A    between atoms: _63  and  _65
REMARK   31  A    between atoms: _65  and  _66
REMARK   32  A    between atoms: _65  and  _68
REMARK   33  A    between atoms: _68  and  _69
REMARK   34  A    between atoms: _69  and  _70
REMARK   35  A    between atoms: _73  and  _75
REMARK   36  A    between atoms: _75  and  _76
REMARK   37  A    between atoms: _75  and  _78
REMARK   38  A    between atoms: _78  and  _79
REMARK   39  A    between atoms: _79  and  _80
REMARK   40  A    between atoms: _80  and  _82
REMARK   41  A    between atoms: _82  and  ZN_284
REMARK   42  A    between atoms: _83  and  _85
REMARK   43  A    between atoms: _85  and  _86
REMARK   44  A    between atoms: _89  and  _91
REMARK   45  A    between atoms: _91  and  _92
REMARK   46  A    between atoms: _91  and  _94
REMARK   47  A    between atoms: _94  and  _95
REMARK   48  A    between atoms: _105  and  _107
REMARK   49  A    between atoms: _107  and  _108
REMARK   50  A    between atoms: _110  and  _112
REMARK   51  A    between atoms: _112  and  _113
REMARK   52  A    between atoms: _112  and  _115
REMARK   53  A    between atoms: _115  and  _116
REMARK   54  A    between atoms: _118  and  _120
REMARK   55  A    between atoms: _120  and  _121
REMARK   56  A    between atoms: _120  and  _123
REMARK   57  A    between atoms: _123  and  _124
REMARK   58  A    between atoms: _127  and  _129
REMARK   59  A    between atoms: _129  and  _130
REMARK   60  A    between atoms: _129  and  _132
REMARK   61  A    between atoms: _132  and  _133
REMARK   62  A    between atoms: _136  and  _138
REMARK   63  A    between atoms: _138  and  _139
REMARK   64  A    between atoms: _138  and  _141
REMARK   65  A    between atoms: _141  and  _142
REMARK   66  A    between atoms: _145  and  _147
REMARK   67  A    between atoms: _147  and  _148
REMARK   68  A    between atoms: _147  and  _150
REMARK   69  A    between atoms: _150  and  _151
REMARK   70  A    between atoms: _154  and  _156
REMARK   71  A    between atoms: _156  and  _157
REMARK   72  A    between atoms: _156  and  _159
REMARK   73  A    between atoms: _159  and  _160
REMARK   74  A    between atoms: _163  and  _165
REMARK   75  A    between atoms: _165  and  _166
REMARK   76  A    between atoms: _165  and  _168
REMARK   77  A    between atoms: _168  and  _169
REMARK   78  A    between atoms: _171  and  _173
REMARK   79  A    between atoms: _173  and  _174
REMARK   80  A    between atoms: _173  and  _176
REMARK   81  A    between atoms: _179  and  _181
REMARK   82  A    between atoms: _181  and  _182
REMARK   83  A    between atoms: _181  and  _184
REMARK   84  A    between atoms: _184  and  _185
REMARK   85  A    between atoms: _185  and  _186
REMARK   86  A    between atoms: _189  and  _191
REMARK   87  A    between atoms: _191  and  _192
REMARK   88  A    between atoms: _191  and  _194
REMARK   89  A    between atoms: _194  and  _195
REMARK   90  A    between atoms: _198  and  _200
REMARK   91  A    between atoms: _200  and  _201
REMARK   92  A    between atoms: _200  and  _203
REMARK   93  A    between atoms: _203  and  _204
REMARK   94  A    between atoms: _207  and  _209
REMARK   95  A    between atoms: _209  and  _210
REMARK   96  A    between atoms: _209  and  _212
REMARK   97  A    between atoms: _212  and  _213
REMARK   98  A    between atoms: _218  and  _220
REMARK   99  A    between atoms: _220  and  _221
REMARK  100  A    between atoms: _220  and  _223
REMARK  101  A    between atoms: _223  and  _224
REMARK  102  A    between atoms: _229  and  _231
REMARK  103  A    between atoms: _231  and  _232
REMARK  104  A    between atoms: _231  and  _234
REMARK  105  A    between atoms: _234  and  _235
REMARK  106  A    between atoms: _238  and  _240
REMARK  107  A    between atoms: _240  and  _241
REMARK  108  A    between atoms: _240  and  _243
REMARK  109  A    between atoms: _243  and  _244
REMARK  110  A    between atoms: _251  and  _252
REMARK  111  A    between atoms: _257  and  _259
REMARK  112  A    between atoms: _259  and  _260
REMARK  113  A    between atoms: _259  and  _262
REMARK  114  A    between atoms: _262  and  _263
REMARK  115  A    between atoms: _273  and  _275
REMARK  116  A    between atoms: _275  and  _276
REMARK  117  A    between atoms: _275  and  _278
REMARK  118  A    between atoms: _278  and  _279
REMARK  119  A    between atoms: _283  and  ZN_284
REMARK                            x       y       z     vdW  Elec       q    Type
REMARK                         _______ _______ _______ _____ _____    ______ ____
ROOT
ATOM      1  O   HOH     1       2.558  11.772 -10.045  0.00  0.00    +0.000 OA
ENDROOT
TORSDOF 0
REMARK  Name = ../refined-set-2016/3pb9/3pb9_pocket.pdb
REMARK  119 active torsions:
REMARK  status: ('A' for Active; 'I' for Inactive)
REMARK    1  A    between atoms: _1  and  _3
REMARK    2  A    between atoms: _3  and  _4
REMARK    3  A    between atoms: _3  and  _6
REMARK    4  A    between atoms: _6  and  _7
REMARK    5  A    between atoms: _12  and  _14
REMARK    6  A    between atoms: _14  and  _15
REMARK    7  A    between atoms: _14  and  _17
REMARK    8  A    between atoms: _17  and  _18
REMARK    9  A    between atoms: _18  and  _19
REMARK   10  A    between atoms: _19  and  _20
REMARK   11  A    between atoms: _20  and  _21
REMARK   12  A    between atoms: _25  and  _27
REMARK   13  A    between atoms: _27  and  _28
REMARK   14  A    between atoms: _27  and  _30
REMARK   15  A    between atoms: _30  and  _31
REMARK   16  A    between atoms: _37  and  _39
REMARK   17  A    between atoms: _39  and  _40
REMARK   18  A    between atoms: _39  and  _42
REMARK   19  A    between atoms: _42  and  _43
REMARK   20  A    between atoms: _46  and  _48
REMARK   21  A    between atoms: _48  and  _49
REMARK   22  A    between atoms: _48  and  _51
REMARK   23  A    between atoms: _51  and  _52
REMARK   24  A    between atoms: _52  and  _54
REMARK   25  A    between atoms: _54  and  ZN_284
REMARK   26  A    between atoms: _55  and  _57
REMARK   27  A    between atoms: _57  and  _58
REMARK   28  A    between atoms: _57  and  _60
REMARK   29  A    between atoms: _60  and  _61
REMARK   30  A    between atoms: _63  and  _65
REMARK   31  A    between atoms: _65  and  _66
REMARK   32  A    between atoms: _65  and  _68
REMARK   33  A    between atoms: _68  and  _69
REMARK   34  A    between atoms: _69  and  _70
REMARK   35  A    between atoms: _73  and  _75
REMARK   36  A    between atoms: _75  and  _76
REMARK   37  A    between atoms: _75  and  _78
REMARK   38  A    between atoms: _78  and  _79
REMARK   39  A    between atoms: _79  and  _80
REMARK   40  A    between atoms: _80  and  _82
REMARK   41  A    between atoms: _82  and  ZN_284
REMARK   42  A    between atoms: _83  and  _85
REMARK   43  A    between atoms: _85  and  _86
REMARK   44  A    between atoms: _89  and  _91
REMARK   45  A    between atoms: _91  and  _92
REMARK   46  A    between atoms: _91  and  _94
REMARK   47  A    between atoms: _94  and  _95
REMARK   48  A    between atoms: _105  and  _107
REMARK   49  A    between atoms: _107  and  _108
REMARK   50  A    between atoms: _110  and  _112
REMARK   51  A    between atoms: _112  and  _113
REMARK   52  A    between atoms: _112  and  _115
REMARK   53  A    between atoms: _115  and  _116
REMARK   54  A    between atoms: _118  and  _120
REMARK   55  A    between atoms: _120  and  _121
REMARK   56  A    between atoms: _120  and  _123
REMARK   57  A    between atoms: _123  and  _124
REMARK   58  A    between atoms: _127  and  _129
REMARK   59  A    between atoms: _129  and  _130
REMARK   60  A    between atoms: _129  and  _132
REMARK   61  A    between atoms: _132  and  _133
REMARK   62  A    between atoms: _136  and  _138
REMARK   63  A    between atoms: _138  and  _139
REMARK   64  A    between atoms: _138  and  _141
REMARK   65  A    between atoms: _141  and  _142
REMARK   66  A    between atoms: _145  and  _147
REMARK   67  A    between atoms: _147  and  _148
REMARK   68  A    between atoms: _147  and  _150
REMARK   69  A    between atoms: _150  and  _151
REMARK   70  A    between atoms: _154  and  _156
REMARK   71  A    between atoms: _156  and  _157
REMARK   72  A    between atoms: _156  and  _159
REMARK   73  A    between atoms: _159  and  _160
REMARK   74  A    between atoms: _163  and  _165
REMARK   75  A    between atoms: _165  and  _166
REMARK   76  A    between atoms: _165  and  _168
REMARK   77  A    between atoms: _168  and  _169
REMARK   78  A    between atoms: _171  and  _173
REMARK   79  A    between atoms: _173  and  _174
REMARK   80  A    between atoms: _173  and  _176
REMARK   81  A    between atoms: _179  and  _181
REMARK   82  A    between atoms: _181  and  _182
REMARK   83  A    between atoms: _181  and  _184
REMARK   84  A    between atoms: _184  and  _185
REMARK   85  A    between atoms: _185  and  _186
REMARK   86  A    between atoms: _189  and  _191
REMARK   87  A    between atoms: _191  and  _192
REMARK   88  A    between atoms: _191  and  _194
REMARK   89  A    between atoms: _194  and  _195
REMARK   90  A    between atoms: _198  and  _200
REMARK   91  A    between atoms: _200  and  _201
REMARK   92  A    between atoms: _200  and  _203
REMARK   93  A    between atoms: _203  and  _204
REMARK   94  A    between atoms: _207  and  _209
REMARK   95  A    between atoms: _209  and  _210
REMARK   96  A    between atoms: _209  and  _212
REMARK   97  A    between atoms: _212  and  _213
REMARK   98  A    between atoms: _218  and  _220
REMARK   99  A    between atoms: _220  and  _221
REMARK  100  A    between atoms: _220  and  _223
REMARK  101  A    between atoms: _223  and  _224
REMARK  102  A    between atoms: _229  and  _231
REMARK  103  A    between atoms: _231  and  _232
REMARK  104  A    between atoms: _231  and  _234
REMARK  105  A    between atoms: _234  and  _235
REMARK  106  A    between atoms: _238  and  _240
REMARK  107  A    between atoms: _240  and  _241
REMARK  108  A    between atoms: _240  and  _243
REMARK  109  A    between atoms: _243  and  _244
REMARK  110  A    between atoms: _251  and  _252
REMARK  111  A    between atoms: _257  and  _259
REMARK  112  A    between atoms: _259  and  _260
REMARK  113  A    between atoms: _259  and  _262
REMARK  114  A    between atoms: _262  and  _263
REMARK  115  A    between atoms: _273  and  _275
REMARK  116  A    between atoms: _275  and  _276
REMARK  117  A    between atoms: _275  and  _278
REMARK  118  A    between atoms: _278  and  _279
REMARK  119  A    between atoms: _283  and  ZN_284
REMARK                            x       y       z     vdW  Elec       q    Type
REMARK                         _______ _______ _______ _____ _____    ______ ____
ROOT
ATOM      1  O   HOH     1       8.869  12.341 -24.933  0.00  0.00    +0.000 OA
ENDROOT
TORSDOF 0
REMARK  Name = ../refined-set-2016/3pb9/3pb9_pocket.pdb
REMARK  119 active torsions:
REMARK  status: ('A' for Active; 'I' for Inactive)
REMARK    1  A    between atoms: _1  and  _3
REMARK    2  A    between atoms: _3  and  _4
REMARK    3  A    between atoms: _3  and  _6
REMARK    4  A    between atoms: _6  and  _7
REMARK    5  A    between atoms: _12  and  _14
REMARK    6  A    between atoms: _14  and  _15
REMARK    7  A    between atoms: _14  and  _17
REMARK    8  A    between atoms: _17  and  _18
REMARK    9  A    between atoms: _18  and  _19
REMARK   10  A    between atoms: _19  and  _20
REMARK   11  A    between atoms: _20  and  _21
REMARK   12  A    between atoms: _25  and  _27
REMARK   13  A    between atoms: _27  and  _28
REMARK   14  A    between atoms: _27  and  _30
REMARK   15  A    between atoms: _30  and  _31
REMARK   16  A    between atoms: _37  and  _39
REMARK   17  A    between atoms: _39  and  _40
REMARK   18  A    between atoms: _39  and  _42
REMARK   19  A    between atoms: _42  and  _43
REMARK   20  A    between atoms: _46  and  _48
REMARK   21  A    between atoms: _48  and  _49
REMARK   22  A    between atoms: _48  and  _51
REMARK   23  A    between atoms: _51  and  _52
REMARK   24  A    between atoms: _52  and  _54
REMARK   25  A    between atoms: _54  and  ZN_284
REMARK   26  A    between atoms: _55  and  _57
REMARK   27  A    between atoms: _57  and  _58
REMARK   28  A    between atoms: _57  and  _60
REMARK   29  A    between atoms: _60  and  _61
REMARK   30  A    between atoms: _63  and  _65
REMARK   31  A    between atoms: _65  and  _66
REMARK   32  A    between atoms: _65  and  _68
REMARK   33  A    between atoms: _68  and  _69
REMARK   34  A    between atoms: _69  and  _70
REMARK   35  A    between atoms: _73  and  _75
REMARK   36  A    between atoms: _75  and  _76
REMARK   37  A    between atoms: _75  and  _78
REMARK   38  A    between atoms: _78  and  _79
REMARK   39  A    between atoms: _79  and  _80
REMARK   40  A    between atoms: _80  and  _82
REMARK   41  A    between atoms: _82  and  ZN_284
REMARK   42  A    between atoms: _83  and  _85
REMARK   43  A    between atoms: _85  and  _86
REMARK   44  A    between atoms: _89  and  _91
REMARK   45  A    between atoms: _91  and  _92
REMARK   46  A    between atoms: _91  and  _94
REMARK   47  A    between atoms: _94  and  _95
REMARK   48  A    between atoms: _105  and  _107
REMARK   49  A    between atoms: _107  and  _108
REMARK   50  A    between atoms: _110  and  _112
REMARK   51  A    between atoms: _112  and  _113
REMARK   52  A    between atoms: _112  and  _115
REMARK   53  A    between atoms: _115  and  _116
REMARK   54  A    between atoms: _118  and  _120
REMARK   55  A    between atoms: _120  and  _121
REMARK   56  A    between atoms: _120  and  _123
REMARK   57  A    between atoms: _123  and  _124
REMARK   58  A    between atoms: _127  and  _129
REMARK   59  A    between atoms: _129  and  _130
REMARK   60  A    between atoms: _129  and  _132
REMARK   61  A    between atoms: _132  and  _133
REMARK   62  A    between atoms: _136  and  _138
REMARK   63  A    between atoms: _138  and  _139
REMARK   64  A    between atoms: _138  and  _141
REMARK   65  A    between atoms: _141  and  _142
REMARK   66  A    between atoms: _145  and  _147
REMARK   67  A    between atoms: _147  and  _148
REMARK   68  A    between atoms: _147  and  _150
REMARK   69  A    between atoms: _150  and  _151
REMARK   70  A    between atoms: _154  and  _156
REMARK   71  A    between atoms: _156  and  _157
REMARK   72  A    between atoms: _156  and  _159
REMARK   73  A    between atoms: _159  and  _160
REMARK   74  A    between atoms: _163  and  _165
REMARK   75  A    between atoms: _165  and  _166
REMARK   76  A    between atoms: _165  and  _168
REMARK   77  A    between atoms: _168  and  _169
REMARK   78  A    between atoms: _171  and  _173
REMARK   79  A    between atoms: _173  and  _174
REMARK   80  A    between atoms: _173  and  _176
REMARK   81  A    between atoms: _179  and  _181
REMARK   82  A    between atoms: _181  and  _182
REMARK   83  A    between atoms: _181  and  _184
REMARK   84  A    between atoms: _184  and  _185
REMARK   85  A    between atoms: _185  and  _186
REMARK   86  A    between atoms: _189  and  _191
REMARK   87  A    between atoms: _191  and  _192
REMARK   88  A    between atoms: _191  and  _194
REMARK   89  A    between atoms: _194  and  _195
REMARK   90  A    between atoms: _198  and  _200
REMARK   91  A    between atoms: _200  and  _201
REMARK   92  A    between atoms: _200  and  _203
REMARK   93  A    between atoms: _203  and  _204
REMARK   94  A    between atoms: _207  and  _209
REMARK   95  A    between atoms: _209  and  _210
REMARK   96  A    between atoms: _209  and  _212
REMARK   97  A    between atoms: _212  and  _213
REMARK   98  A    between atoms: _218  and  _220
REMARK   99  A    between atoms: _220  and  _221
REMARK  100  A    between atoms: _220  and  _223
REMARK  101  A    between atoms: _223  and  _224
REMARK  102  A    between atoms: _229  and  _231
REMARK  103  A    between atoms: _231  and  _232
REMARK  104  A    between atoms: _231  and  _234
REMARK  105  A    between atoms: _234  and  _235
REMARK  106  A    between atoms: _238  and  _240
REMARK  107  A    between atoms: _240  and  _241
REMARK  108  A    between atoms: _240  and  _243
REMARK  109  A    between atoms: _243  and  _244
REMARK  110  A    between atoms: _251  and  _252
REMARK  111  A    between atoms: _257  and  _259
REMARK  112  A    between atoms: _259  and  _260
REMARK  113  A    between atoms: _259  and  _262
REMARK  114  A    between atoms: _262  and  _263
REMARK  115  A    between atoms: _273  and  _275
REMARK  116  A    between atoms: _275  and  _276
REMARK  117  A    between atoms: _275  and  _278
REMARK  118  A    between atoms: _278  and  _279
REMARK  119  A    between atoms: _283  and  ZN_284
REMARK                            x       y       z     vdW  Elec       q    Type
REMARK                         _______ _______ _______ _____ _____    ______ ____
ROOT
ATOM      1  O   HOH     1       5.400  20.579 -16.205  0.00  0.00    +0.000 OA
ENDROOT
TORSDOF 0
REMARK  Name = ../refined-set-2016/3pb9/3pb9_pocket.pdb
REMARK  119 active torsions:
REMARK  status: ('A' for Active; 'I' for Inactive)
REMARK    1  A    between atoms: _1  and  _3
REMARK    2  A    between atoms: _3  and  _4
REMARK    3  A    between atoms: _3  and  _6
REMARK    4  A    between atoms: _6  and  _7
REMARK    5  A    between atoms: _12  and  _14
REMARK    6  A    between atoms: _14  and  _15
REMARK    7  A    between atoms: _14  and  _17
REMARK    8  A    between atoms: _17  and  _18
REMARK    9  A    between atoms: _18  and  _19
REMARK   10  A    between atoms: _19  and  _20
REMARK   11  A    between atoms: _20  and  _21
REMARK   12  A    between atoms: _25  and  _27
REMARK   13  A    between atoms: _27  and  _28
REMARK   14  A    between atoms: _27  and  _30
REMARK   15  A    between atoms: _30  and  _31
REMARK   16  A    between atoms: _37  and  _39
REMARK   17  A    between atoms: _39  and  _40
REMARK   18  A    between atoms: _39  and  _42
REMARK   19  A    between atoms: _42  and  _43
REMARK   20  A    between atoms: _46  and  _48
REMARK   21  A    between atoms: _48  and  _49
REMARK   22  A    between atoms: _48  and  _51
REMARK   23  A    between atoms: _51  and  _52
REMARK   24  A    between atoms: _52  and  _54
REMARK   25  A    between atoms: _54  and  ZN_284
REMARK   26  A    between atoms: _55  and  _57
REMARK   27  A    between atoms: _57  and  _58
REMARK   28  A    between atoms: _57  and  _60
REMARK   29  A    between atoms: _60  and  _61
REMARK   30  A    between atoms: _63  and  _65
REMARK   31  A    between atoms: _65  and  _66
REMARK   32  A    between atoms: _65  and  _68
REMARK   33  A    between atoms: _68  and  _69
REMARK   34  A    between atoms: _69  and  _70
REMARK   35  A    between atoms: _73  and  _75
REMARK   36  A    between atoms: _75  and  _76
REMARK   37  A    between atoms: _75  and  _78
REMARK   38  A    between atoms: _78  and  _79
REMARK   39  A    between atoms: _79  and  _80
REMARK   40  A    between atoms: _80  and  _82
REMARK   41  A    between atoms: _82  and  ZN_284
REMARK   42  A    between atoms: _83  and  _85
REMARK   43  A    between atoms: _85  and  _86
REMARK   44  A    between atoms: _89  and  _91
REMARK   45  A    between atoms: _91  and  _92
REMARK   46  A    between atoms: _91  and  _94
REMARK   47  A    between atoms: _94  and  _95
REMARK   48  A    between atoms: _105  and  _107
REMARK   49  A    between atoms: _107  and  _108
REMARK   50  A    between atoms: _110  and  _112
REMARK   51  A    between atoms: _112  and  _113
REMARK   52  A    between atoms: _112  and  _115
REMARK   53  A    between atoms: _115  and  _116
REMARK   54  A    between atoms: _118  and  _120
REMARK   55  A    between atoms: _120  and  _121
REMARK   56  A    between atoms: _120  and  _123
REMARK   57  A    between atoms: _123  and  _124
REMARK   58  A    between atoms: _127  and  _129
REMARK   59  A    between atoms: _129  and  _130
REMARK   60  A    between atoms: _129  and  _132
REMARK   61  A    between atoms: _132  and  _133
REMARK   62  A    between atoms: _136  and  _138
REMARK   63  A    between atoms: _138  and  _139
REMARK   64  A    between atoms: _138  and  _141
REMARK   65  A    between atoms: _141  and  _142
REMARK   66  A    between atoms: _145  and  _147
REMARK   67  A    between atoms: _147  and  _148
REMARK   68  A    between atoms: _147  and  _150
REMARK   69  A    between atoms: _150  and  _151
REMARK   70  A    between atoms: _154  and  _156
REMARK   71  A    between atoms: _156  and  _157
REMARK   72  A    between atoms: _156  and  _159
REMARK   73  A    between atoms: _159  and  _160
REMARK   74  A    between atoms: _163  and  _165
REMARK   75  A    between atoms: _165  and  _166
REMARK   76  A    between atoms: _165  and  _168
REMARK   77  A    between atoms: _168  and  _169
REMARK   78  A    between atoms: _171  and  _173
REMARK   79  A    between atoms: _173  and  _174
REMARK   80  A    between atoms: _173  and  _176
REMARK   81  A    between atoms: _179  and  _181
REMARK   82  A    between atoms: _181  and  _182
REMARK   83  A    between atoms: _181  and  _184
REMARK   84  A    between atoms: _184  and  _185
REMARK   85  A    between atoms: _185  and  _186
REMARK   86  A    between atoms: _189  and  _191
REMARK   87  A    between atoms: _191  and  _192
REMARK   88  A    between atoms: _191  and  _194
REMARK   89  A    between atoms: _194  and  _195
REMARK   90  A    between atoms: _198  and  _200
REMARK   91  A    between atoms: _200  and  _201
REMARK   92  A    between atoms: _200  and  _203
REMARK   93  A    between atoms: _203  and  _204
REMARK   94  A    between atoms: _207  and  _209
REMARK   95  A    between atoms: _209  and  _210
REMARK   96  A    between atoms: _209  and  _212
REMARK   97  A    between atoms: _212  and  _213
REMARK   98  A    between atoms: _218  and  _220
REMARK   99  A    between atoms: _220  and  _221
REMARK  100  A    between atoms: _220  and  _223
REMARK  101  A    between atoms: _223  and  _224
REMARK  102  A    between atoms: _229  and  _231
REMARK  103  A    between atoms: _231  and  _232
REMARK  104  A    between atoms: _231  and  _234
REMARK  105  A    between atoms: _234  and  _235
REMARK  106  A    between atoms: _238  and  _240
REMARK  107  A    between atoms: _240  and  _241
REMARK  108  A    between atoms: _240  and  _243
REMARK  109  A    between atoms: _243  and  _244
REMARK  110  A    between atoms: _251  and  _252
REMARK  111  A    between atoms: _257  and  _259
REMARK  112  A    between atoms: _259  and  _260
REMARK  113  A    between atoms: _259  and  _262
REMARK  114  A    between atoms: _262  and  _263
REMARK  115  A    between atoms: _273  and  _275
REMARK  116  A    between atoms: _275  and  _276
REMARK  117  A    between atoms: _275  and  _278
REMARK  118  A    between atoms: _278  and  _279
REMARK  119  A    between atoms: _283  and  ZN_284
REMARK                            x       y       z     vdW  Elec       q    Type
REMARK                         _______ _______ _______ _____ _____    ______ ____
ROOT
ATOM      1  O   HOH     1       1.055  11.406 -19.671  0.00  0.00    +0.000 OA
ENDROOT
TORSDOF 0
REMARK  Name = ../refined-set-2016/3pb9/3pb9_pocket.pdb
REMARK  119 active torsions:
REMARK  status: ('A' for Active; 'I' for Inactive)
REMARK    1  A    between atoms: _1  and  _3
REMARK    2  A    between atoms: _3  and  _4
REMARK    3  A    between atoms: _3  and  _6
REMARK    4  A    between atoms: _6  and  _7
REMARK    5  A    between atoms: _12  and  _14
REMARK    6  A    between atoms: _14  and  _15
REMARK    7  A    between atoms: _14  and  _17
REMARK    8  A    between atoms: _17  and  _18
REMARK    9  A    between atoms: _18  and  _19
REMARK   10  A    between atoms: _19  and  _20
REMARK   11  A    between atoms: _20  and  _21
REMARK   12  A    between atoms: _25  and  _27
REMARK   13  A    between atoms: _27  and  _28
REMARK   14  A    between atoms: _27  and  _30
REMARK   15  A    between atoms: _30  and  _31
REMARK   16  A    between atoms: _37  and  _39
REMARK   17  A    between atoms: _39  and  _40
REMARK   18  A    between atoms: _39  and  _42
REMARK   19  A    between atoms: _42  and  _43
REMARK   20  A    between atoms: _46  and  _48
REMARK   21  A    between atoms: _48  and  _49
REMARK   22  A    between atoms: _48  and  _51
REMARK   23  A    between atoms: _51  and  _52
REMARK   24  A    between atoms: _52  and  _54
REMARK   25  A    between atoms: _54  and  ZN_284
REMARK   26  A    between atoms: _55  and  _57
REMARK   27  A    between atoms: _57  and  _58
REMARK   28  A    between atoms: _57  and  _60
REMARK   29  A    between atoms: _60  and  _61
REMARK   30  A    between atoms: _63  and  _65
REMARK   31  A    between atoms: _65  and  _66
REMARK   32  A    between atoms: _65  and  _68
REMARK   33  A    between atoms: _68  and  _69
REMARK   34  A    between atoms: _69  and  _70
REMARK   35  A    between atoms: _73  and  _75
REMARK   36  A    between atoms: _75  and  _76
REMARK   37  A    between atoms: _75  and  _78
REMARK   38  A    between atoms: _78  and  _79
REMARK   39  A    between atoms: _79  and  _80
REMARK   40  A    between atoms: _80  and  _82
REMARK   41  A    between atoms: _82  and  ZN_284
REMARK   42  A    between atoms: _83  and  _85
REMARK   43  A    between atoms: _85  and  _86
REMARK   44  A    between atoms: _89  and  _91
REMARK   45  A    between atoms: _91  and  _92
REMARK   46  A    between atoms: _91  and  _94
REMARK   47  A    between atoms: _94  and  _95
REMARK   48  A    between atoms: _105  and  _107
REMARK   49  A    between atoms: _107  and  _108
REMARK   50  A    between atoms: _110  and  _112
REMARK   51  A    between atoms: _112  and  _113
REMARK   52  A    between atoms: _112  and  _115
REMARK   53  A    between atoms: _115  and  _116
REMARK   54  A    between atoms: _118  and  _120
REMARK   55  A    between atoms: _120  and  _121
REMARK   56  A    between atoms: _120  and  _123
REMARK   57  A    between atoms: _123  and  _124
REMARK   58  A    between atoms: _127  and  _129
REMARK   59  A    between atoms: _129  and  _130
REMARK   60  A    between atoms: _129  and  _132
REMARK   61  A    between atoms: _132  and  _133
REMARK   62  A    between atoms: _136  and  _138
REMARK   63  A    between atoms: _138  and  _139
REMARK   64  A    between atoms: _138  and  _141
REMARK   65  A    between atoms: _141  and  _142
REMARK   66  A    between atoms: _145  and  _147
REMARK   67  A    between atoms: _147  and  _148
REMARK   68  A    between atoms: _147  and  _150
REMARK   69  A    between atoms: _150  and  _151
REMARK   70  A    between atoms: _154  and  _156
REMARK   71  A    between atoms: _156  and  _157
REMARK   72  A    between atoms: _156  and  _159
REMARK   73  A    between atoms: _159  and  _160
REMARK   74  A    between atoms: _163  and  _165
REMARK   75  A    between atoms: _165  and  _166
REMARK   76  A    between atoms: _165  and  _168
REMARK   77  A    between atoms: _168  and  _169
REMARK   78  A    between atoms: _171  and  _173
REMARK   79  A    between atoms: _173  and  _174
REMARK   80  A    between atoms: _173  and  _176
REMARK   81  A    between atoms: _179  and  _181
REMARK   82  A    between atoms: _181  and  _182
REMARK   83  A    between atoms: _181  and  _184
REMARK   84  A    between atoms: _184  and  _185
REMARK   85  A    between atoms: _185  and  _186
REMARK   86  A    between atoms: _189  and  _191
REMARK   87  A    between atoms: _191  and  _192
REMARK   88  A    between atoms: _191  and  _194
REMARK   89  A    between atoms: _194  and  _195
REMARK   90  A    between atoms: _198  and  _200
REMARK   91  A    between atoms: _200  and  _201
REMARK   92  A    between atoms: _200  and  _203
REMARK   93  A    between atoms: _203  and  _204
REMARK   94  A    between atoms: _207  and  _209
REMARK   95  A    between atoms: _209  and  _210
REMARK   96  A    between atoms: _209  and  _212
REMARK   97  A    between atoms: _212  and  _213
REMARK   98  A    between atoms: _218  and  _220
REMARK   99  A    between atoms: _220  and  _221
REMARK  100  A    between atoms: _220  and  _223
REMARK  101  A    between atoms: _223  and  _224
REMARK  102  A    between atoms: _229  and  _231
REMARK  103  A    between atoms: _231  and  _232
REMARK  104  A    between atoms: _231  and  _234
REMARK  105  A    between atoms: _234  and  _235
REMARK  106  A    between atoms: _238  and  _240
REMARK  107  A    between atoms: _240  and  _241
REMARK  108  A    between atoms: _240  and  _243
REMARK  109  A    between atoms: _243  and  _244
REMARK  110  A    between atoms: _251  and  _252
REMARK  111  A    between atoms: _257  and  _259
REMARK  112  A    between atoms: _259  and  _260
REMARK  113  A    between atoms: _259  and  _262
REMARK  114  A    between atoms: _262  and  _263
REMARK  115  A    between atoms: _273  and  _275
REMARK  116  A    between atoms: _275  and  _276
REMARK  117  A    between atoms: _275  and  _278
REMARK  118  A    between atoms: _278  and  _279
REMARK  119  A    between atoms: _283  and  ZN_284
REMARK                            x       y       z     vdW  Elec       q    Type
REMARK                         _______ _______ _______ _____ _____    ______ ____
ROOT
ATOM      1  O   HOH     1      13.796  18.233 -23.022  0.00  0.00    +0.000 OA
ENDROOT
TORSDOF 0
REMARK  Name = ../refined-set-2016/3pb9/3pb9_pocket.pdb
REMARK  119 active torsions:
REMARK  status: ('A' for Active; 'I' for Inactive)
REMARK    1  A    between atoms: _1  and  _3
REMARK    2  A    between atoms: _3  and  _4
REMARK    3  A    between atoms: _3  and  _6
REMARK    4  A    between atoms: _6  and  _7
REMARK    5  A    between atoms: _12  and  _14
REMARK    6  A    between atoms: _14  and  _15
REMARK    7  A    between atoms: _14  and  _17
REMARK    8  A    between atoms: _17  and  _18
REMARK    9  A    between atoms: _18  and  _19
REMARK   10  A    between atoms: _19  and  _20
REMARK   11  A    between atoms: _20  and  _21
REMARK   12  A    between atoms: _25  and  _27
REMARK   13  A    between atoms: _27  and  _28
REMARK   14  A    between atoms: _27  and  _30
REMARK   15  A    between atoms: _30  and  _31
REMARK   16  A    between atoms: _37  and  _39
REMARK   17  A    between atoms: _39  and  _40
REMARK   18  A    between atoms: _39  and  _42
REMARK   19  A    between atoms: _42  and  _43
REMARK   20  A    between atoms: _46  and  _48
REMARK   21  A    between atoms: _48  and  _49
REMARK   22  A    between atoms: _48  and  _51
REMARK   23  A    between atoms: _51  and  _52
REMARK   24  A    between atoms: _52  and  _54
REMARK   25  A    between atoms: _54  and  ZN_284
REMARK   26  A    between atoms: _55  and  _57
REMARK   27  A    between atoms: _57  and  _58
REMARK   28  A    between atoms: _57  and  _60
REMARK   29  A    between atoms: _60  and  _61
REMARK   30  A    between atoms: _63  and  _65
REMARK   31  A    between atoms: _65  and  _66
REMARK   32  A    between atoms: _65  and  _68
REMARK   33  A    between atoms: _68  and  _69
REMARK   34  A    between atoms: _69  and  _70
REMARK   35  A    between atoms: _73  and  _75
REMARK   36  A    between atoms: _75  and  _76
REMARK   37  A    between atoms: _75  and  _78
REMARK   38  A    between atoms: _78  and  _79
REMARK   39  A    between atoms: _79  and  _80
REMARK   40  A    between atoms: _80  and  _82
REMARK   41  A    between atoms: _82  and  ZN_284
REMARK   42  A    between atoms: _83  and  _85
REMARK   43  A    between atoms: _85  and  _86
REMARK   44  A    between atoms: _89  and  _91
REMARK   45  A    between atoms: _91  and  _92
REMARK   46  A    between atoms: _91  and  _94
REMARK   47  A    between atoms: _94  and  _95
REMARK   48  A    between atoms: _105  and  _107
REMARK   49  A    between atoms: _107  and  _108
REMARK   50  A    between atoms: _110  and  _112
REMARK   51  A    between atoms: _112  and  _113
REMARK   52  A    between atoms: _112  and  _115
REMARK   53  A    between atoms: _115  and  _116
REMARK   54  A    between atoms: _118  and  _120
REMARK   55  A    between atoms: _120  and  _121
REMARK   56  A    between atoms: _120  and  _123
REMARK   57  A    between atoms: _123  and  _124
REMARK   58  A    between atoms: _127  and  _129
REMARK   59  A    between atoms: _129  and  _130
REMARK   60  A    between atoms: _129  and  _132
REMARK   61  A    between atoms: _132  and  _133
REMARK   62  A    between atoms: _136  and  _138
REMARK   63  A    between atoms: _138  and  _139
REMARK   64  A    between atoms: _138  and  _141
REMARK   65  A    between atoms: _141  and  _142
REMARK   66  A    between atoms: _145  and  _147
REMARK   67  A    between atoms: _147  and  _148
REMARK   68  A    between atoms: _147  and  _150
REMARK   69  A    between atoms: _150  and  _151
REMARK   70  A    between atoms: _154  and  _156
REMARK   71  A    between atoms: _156  and  _157
REMARK   72  A    between atoms: _156  and  _159
REMARK   73  A    between atoms: _159  and  _160
REMARK   74  A    between atoms: _163  and  _165
REMARK   75  A    between atoms: _165  and  _166
REMARK   76  A    between atoms: _165  and  _168
REMARK   77  A    between atoms: _168  and  _169
REMARK   78  A    between atoms: _171  and  _173
REMARK   79  A    between atoms: _173  and  _174
REMARK   80  A    between atoms: _173  and  _176
REMARK   81  A    between atoms: _179  and  _181
REMARK   82  A    between atoms: _181  and  _182
REMARK   83  A    between atoms: _181  and  _184
REMARK   84  A    between atoms: _184  and  _185
REMARK   85  A    between atoms: _185  and  _186
REMARK   86  A    between atoms: _189  and  _191
REMARK   87  A    between atoms: _191  and  _192
REMARK   88  A    between atoms: _191  and  _194
REMARK   89  A    between atoms: _194  and  _195
REMARK   90  A    between atoms: _198  and  _200
REMARK   91  A    between atoms: _200  and  _201
REMARK   92  A    between atoms: _200  and  _203
REMARK   93  A    between atoms: _203  and  _204
REMARK   94  A    between atoms: _207  and  _209
REMARK   95  A    between atoms: _209  and  _210
REMARK   96  A    between atoms: _209  and  _212
REMARK   97  A    between atoms: _212  and  _213
REMARK   98  A    between atoms: _218  and  _220
REMARK   99  A    between atoms: _220  and  _221
REMARK  100  A    between atoms: _220  and  _223
REMARK  101  A    between atoms: _223  and  _224
REMARK  102  A    between atoms: _229  and  _231
REMARK  103  A    between atoms: _231  and  _232
REMARK  104  A    between atoms: _231  and  _234
REMARK  105  A    between atoms: _234  and  _235
REMARK  106  A    between atoms: _238  and  _240
REMARK  107  A    between atoms: _240  and  _241
REMARK  108  A    between atoms: _240  and  _243
REMARK  109  A    between atoms: _243  and  _244
REMARK  110  A    between atoms: _251  and  _252
REMARK  111  A    between atoms: _257  and  _259
REMARK  112  A    between atoms: _259  and  _260
REMARK  113  A    between atoms: _259  and  _262
REMARK  114  A    between atoms: _262  and  _263
REMARK  115  A    between atoms: _273  and  _275
REMARK  116  A    between atoms: _275  and  _276
REMARK  117  A    between atoms: _275  and  _278
REMARK  118  A    between atoms: _278  and  _279
REMARK  119  A    between atoms: _283  and  ZN_284
REMARK                            x       y       z     vdW  Elec       q    Type
REMARK                         _______ _______ _______ _____ _____    ______ ____
ROOT
ATOM      1  O   HOH     1       2.375  11.250 -21.995  0.00  0.00    +0.000 OA
ENDROOT
TORSDOF 0
REMARK  Name = ../refined-set-2016/3pb9/3pb9_pocket.pdb
REMARK  119 active torsions:
REMARK  status: ('A' for Active; 'I' for Inactive)
REMARK    1  A    between atoms: _1  and  _3
REMARK    2  A    between atoms: _3  and  _4
REMARK    3  A    between atoms: _3  and  _6
REMARK    4  A    between atoms: _6  and  _7
REMARK    5  A    between atoms: _12  and  _14
REMARK    6  A    between atoms: _14  and  _15
REMARK    7  A    between atoms: _14  and  _17
REMARK    8  A    between atoms: _17  and  _18
REMARK    9  A    between atoms: _18  and  _19
REMARK   10  A    between atoms: _19  and  _20
REMARK   11  A    between atoms: _20  and  _21
REMARK   12  A    between atoms: _25  and  _27
REMARK   13  A    between atoms: _27  and  _28
REMARK   14  A    between atoms: _27  and  _30
REMARK   15  A    between atoms: _30  and  _31
REMARK   16  A    between atoms: _37  and  _39
REMARK   17  A    between atoms: _39  and  _40
REMARK   18  A    between atoms: _39  and  _42
REMARK   19  A    between atoms: _42  and  _43
REMARK   20  A    between atoms: _46  and  _48
REMARK   21  A    between atoms: _48  and  _49
REMARK   22  A    between atoms: _48  and  _51
REMARK   23  A    between atoms: _51  and  _52
REMARK   24  A    between atoms: _52  and  _54
REMARK   25  A    between atoms: _54  and  ZN_284
REMARK   26  A    between atoms: _55  and  _57
REMARK   27  A    between atoms: _57  and  _58
REMARK   28  A    between atoms: _57  and  _60
REMARK   29  A    between atoms: _60  and  _61
REMARK   30  A    between atoms: _63  and  _65
REMARK   31  A    between atoms: _65  and  _66
REMARK   32  A    between atoms: _65  and  _68
REMARK   33  A    between atoms: _68  and  _69
REMARK   34  A    between atoms: _69  and  _70
REMARK   35  A    between atoms: _73  and  _75
REMARK   36  A    between atoms: _75  and  _76
REMARK   37  A    between atoms: _75  and  _78
REMARK   38  A    between atoms: _78  and  _79
REMARK   39  A    between atoms: _79  and  _80
REMARK   40  A    between atoms: _80  and  _82
REMARK   41  A    between atoms: _82  and  ZN_284
REMARK   42  A    between atoms: _83  and  _85
REMARK   43  A    between atoms: _85  and  _86
REMARK   44  A    between atoms: _89  and  _91
REMARK   45  A    between atoms: _91  and  _92
REMARK   46  A    between atoms: _91  and  _94
REMARK   47  A    between atoms: _94  and  _95
REMARK   48  A    between atoms: _105  and  _107
REMARK   49  A    between atoms: _107  and  _108
REMARK   50  A    between atoms: _110  and  _112
REMARK   51  A    between atoms: _112  and  _113
REMARK   52  A    between atoms: _112  and  _115
REMARK   53  A    between atoms: _115  and  _116
REMARK   54  A    between atoms: _118  and  _120
REMARK   55  A    between atoms: _120  and  _121
REMARK   56  A    between atoms: _120  and  _123
REMARK   57  A    between atoms: _123  and  _124
REMARK   58  A    between atoms: _127  and  _129
REMARK   59  A    between atoms: _129  and  _130
REMARK   60  A    between atoms: _129  and  _132
REMARK   61  A    between atoms: _132  and  _133
REMARK   62  A    between atoms: _136  and  _138
REMARK   63  A    between atoms: _138  and  _139
REMARK   64  A    between atoms: _138  and  _141
REMARK   65  A    between atoms: _141  and  _142
REMARK   66  A    between atoms: _145  and  _147
REMARK   67  A    between atoms: _147  and  _148
REMARK   68  A    between atoms: _147  and  _150
REMARK   69  A    between atoms: _150  and  _151
REMARK   70  A    between atoms: _154  and  _156
REMARK   71  A    between atoms: _156  and  _157
REMARK   72  A    between atoms: _156  and  _159
REMARK   73  A    between atoms: _159  and  _160
REMARK   74  A    between atoms: _163  and  _165
REMARK   75  A    between atoms: _165  and  _166
REMARK   76  A    between atoms: _165  and  _168
REMARK   77  A    between atoms: _168  and  _169
REMARK   78  A    between atoms: _171  and  _173
REMARK   79  A    between atoms: _173  and  _174
REMARK   80  A    between atoms: _173  and  _176
REMARK   81  A    between atoms: _179  and  _181
REMARK   82  A    between atoms: _181  and  _182
REMARK   83  A    between atoms: _181  and  _184
REMARK   84  A    between atoms: _184  and  _185
REMARK   85  A    between atoms: _185  and  _186
REMARK   86  A    between atoms: _189  and  _191
REMARK   87  A    between atoms: _191  and  _192
REMARK   88  A    between atoms: _191  and  _194
REMARK   89  A    between atoms: _194  and  _195
REMARK   90  A    between atoms: _198  and  _200
REMARK   91  A    between atoms: _200  and  _201
REMARK   92  A    between atoms: _200  and  _203
REMARK   93  A    between atoms: _203  and  _204
REMARK   94  A    between atoms: _207  and  _209
REMARK   95  A    between atoms: _209  and  _210
REMARK   96  A    between atoms: _209  and  _212
REMARK   97  A    between atoms: _212  and  _213
REMARK   98  A    between atoms: _218  and  _220
REMARK   99  A    between atoms: _220  and  _221
REMARK  100  A    between atoms: _220  and  _223
REMARK  101  A    between atoms: _223  and  _224
REMARK  102  A    between atoms: _229  and  _231
REMARK  103  A    between atoms: _231  and  _232
REMARK  104  A    between atoms: _231  and  _234
REMARK  105  A    between atoms: _234  and  _235
REMARK  106  A    between atoms: _238  and  _240
REMARK  107  A    between atoms: _240  and  _241
REMARK  108  A    between atoms: _240  and  _243
REMARK  109  A    between atoms: _243  and  _244
REMARK  110  A    between atoms: _251  and  _252
REMARK  111  A    between atoms: _257  and  _259
REMARK  112  A    between atoms: _259  and  _260
REMARK  113  A    between atoms: _259  and  _262
REMARK  114  A    between atoms: _262  and  _263
REMARK  115  A    between atoms: _273  and  _275
REMARK  116  A    between atoms: _275  and  _276
REMARK  117  A    between atoms: _275  and  _278
REMARK  118  A    between atoms: _278  and  _279
REMARK  119  A    between atoms: _283  and  ZN_284
REMARK                            x       y       z     vdW  Elec       q    Type
REMARK                         _______ _______ _______ _____ _____    ______ ____
ROOT
ATOM      1  O   HOH     1      14.917  13.669 -22.845  0.00  0.00    +0.000 OA
ENDROOT
TORSDOF 0
REMARK  Name = ../refined-set-2016/3pb9/3pb9_pocket.pdb
REMARK  119 active torsions:
REMARK  status: ('A' for Active; 'I' for Inactive)
REMARK    1  A    between atoms: _1  and  _3
REMARK    2  A    between atoms: _3  and  _4
REMARK    3  A    between atoms: _3  and  _6
REMARK    4  A    between atoms: _6  and  _7
REMARK    5  A    between atoms: _12  and  _14
REMARK    6  A    between atoms: _14  and  _15
REMARK    7  A    between atoms: _14  and  _17
REMARK    8  A    between atoms: _17  and  _18
REMARK    9  A    between atoms: _18  and  _19
REMARK   10  A    between atoms: _19  and  _20
REMARK   11  A    between atoms: _20  and  _21
REMARK   12  A    between atoms: _25  and  _27
REMARK   13  A    between atoms: _27  and  _28
REMARK   14  A    between atoms: _27  and  _30
REMARK   15  A    between atoms: _30  and  _31
REMARK   16  A    between atoms: _37  and  _39
REMARK   17  A    between atoms: _39  and  _40
REMARK   18  A    between atoms: _39  and  _42
REMARK   19  A    between atoms: _42  and  _43
REMARK   20  A    between atoms: _46  and  _48
REMARK   21  A    between atoms: _48  and  _49
REMARK   22  A    between atoms: _48  and  _51
REMARK   23  A    between atoms: _51  and  _52
REMARK   24  A    between atoms: _52  and  _54
REMARK   25  A    between atoms: _54  and  ZN_284
REMARK   26  A    between atoms: _55  and  _57
REMARK   27  A    between atoms: _57  and  _58
REMARK   28  A    between atoms: _57  and  _60
REMARK   29  A    between atoms: _60  and  _61
REMARK   30  A    between atoms: _63  and  _65
REMARK   31  A    between atoms: _65  and  _66
REMARK   32  A    between atoms: _65  and  _68
REMARK   33  A    between atoms: _68  and  _69
REMARK   34  A    between atoms: _69  and  _70
REMARK   35  A    between atoms: _73  and  _75
REMARK   36  A    between atoms: _75  and  _76
REMARK   37  A    between atoms: _75  and  _78
REMARK   38  A    between atoms: _78  and  _79
REMARK   39  A    between atoms: _79  and  _80
REMARK   40  A    between atoms: _80  and  _82
REMARK   41  A    between atoms: _82  and  ZN_284
REMARK   42  A    between atoms: _83  and  _85
REMARK   43  A    between atoms: _85  and  _86
REMARK   44  A    between atoms: _89  and  _91
REMARK   45  A    between atoms: _91  and  _92
REMARK   46  A    between atoms: _91  and  _94
REMARK   47  A    between atoms: _94  and  _95
REMARK   48  A    between atoms: _105  and  _107
REMARK   49  A    between atoms: _107  and  _108
REMARK   50  A    between atoms: _110  and  _112
REMARK   51  A    between atoms: _112  and  _113
REMARK   52  A    between atoms: _112  and  _115
REMARK   53  A    between atoms: _115  and  _116
REMARK   54  A    between atoms: _118  and  _120
REMARK   55  A    between atoms: _120  and  _121
REMARK   56  A    between atoms: _120  and  _123
REMARK   57  A    between atoms: _123  and  _124
REMARK   58  A    between atoms: _127  and  _129
REMARK   59  A    between atoms: _129  and  _130
REMARK   60  A    between atoms: _129  and  _132
REMARK   61  A    between atoms: _132  and  _133
REMARK   62  A    between atoms: _136  and  _138
REMARK   63  A    between atoms: _138  and  _139
REMARK   64  A    between atoms: _138  and  _141
REMARK   65  A    between atoms: _141  and  _142
REMARK   66  A    between atoms: _145  and  _147
REMARK   67  A    between atoms: _147  and  _148
REMARK   68  A    between atoms: _147  and  _150
REMARK   69  A    between atoms: _150  and  _151
REMARK   70  A    between atoms: _154  and  _156
REMARK   71  A    between atoms: _156  and  _157
REMARK   72  A    between atoms: _156  and  _159
REMARK   73  A    between atoms: _159  and  _160
REMARK   74  A    between atoms: _163  and  _165
REMARK   75  A    between atoms: _165  and  _166
REMARK   76  A    between atoms: _165  and  _168
REMARK   77  A    between atoms: _168  and  _169
REMARK   78  A    between atoms: _171  and  _173
REMARK   79  A    between atoms: _173  and  _174
REMARK   80  A    between atoms: _173  and  _176
REMARK   81  A    between atoms: _179  and  _181
REMARK   82  A    between atoms: _181  and  _182
REMARK   83  A    between atoms: _181  and  _184
REMARK   84  A    between atoms: _184  and  _185
REMARK   85  A    between atoms: _185  and  _186
REMARK   86  A    between atoms: _189  and  _191
REMARK   87  A    between atoms: _191  and  _192
REMARK   88  A    between atoms: _191  and  _194
REMARK   89  A    between atoms: _194  and  _195
REMARK   90  A    between atoms: _198  and  _200
REMARK   91  A    between atoms: _200  and  _201
REMARK   92  A    between atoms: _200  and  _203
REMARK   93  A    between atoms: _203  and  _204
REMARK   94  A    between atoms: _207  and  _209
REMARK   95  A    between atoms: _209  and  _210
REMARK   96  A    between atoms: _209  and  _212
REMARK   97  A    between atoms: _212  and  _213
REMARK   98  A    between atoms: _218  and  _220
REMARK   99  A    between atoms: _220  and  _221
REMARK  100  A    between atoms: _220  and  _223
REMARK  101  A    between atoms: _223  and  _224
REMARK  102  A    between atoms: _229  and  _231
REMARK  103  A    between atoms: _231  and  _232
REMARK  104  A    between atoms: _231  and  _234
REMARK  105  A    between atoms: _234  and  _235
REMARK  106  A    between atoms: _238  and  _240
REMARK  107  A    between atoms: _240  and  _241
REMARK  108  A    between atoms: _240  and  _243
REMARK  109  A    between atoms: _243  and  _244
REMARK  110  A    between atoms: _251  and  _252
REMARK  111  A    between atoms: _257  and  _259
REMARK  112  A    between atoms: _259  and  _260
REMARK  113  A    between atoms: _259  and  _262
REMARK  114  A    between atoms: _262  and  _263
REMARK  115  A    between atoms: _273  and  _275
REMARK  116  A    between atoms: _275  and  _276
REMARK  117  A    between atoms: _275  and  _278
REMARK  118  A    between atoms: _278  and  _279
REMARK  119  A    between atoms: _283  and  ZN_284
REMARK                            x       y       z     vdW  Elec       q    Type
REMARK                         _______ _______ _______ _____ _____    ______ ____
ROOT
ATOM      1  O   HOH     1       2.088  20.332 -17.079  0.00  0.00    +0.000 OA
ENDROOT
TORSDOF 0
REMARK  Name = ../refined-set-2016/3pb9/3pb9_pocket.pdb
REMARK  119 active torsions:
REMARK  status: ('A' for Active; 'I' for Inactive)
REMARK    1  A    between atoms: _1  and  _3
REMARK    2  A    between atoms: _3  and  _4
REMARK    3  A    between atoms: _3  and  _6
REMARK    4  A    between atoms: _6  and  _7
REMARK    5  A    between atoms: _12  and  _14
REMARK    6  A    between atoms: _14  and  _15
REMARK    7  A    between atoms: _14  and  _17
REMARK    8  A    between atoms: _17  and  _18
REMARK    9  A    between atoms: _18  and  _19
REMARK   10  A    between atoms: _19  and  _20
REMARK   11  A    between atoms: _20  and  _21
REMARK   12  A    between atoms: _25  and  _27
REMARK   13  A    between atoms: _27  and  _28
REMARK   14  A    between atoms: _27  and  _30
REMARK   15  A    between atoms: _30  and  _31
REMARK   16  A    between atoms: _37  and  _39
REMARK   17  A    between atoms: _39  and  _40
REMARK   18  A    between atoms: _39  and  _42
REMARK   19  A    between atoms: _42  and  _43
REMARK   20  A    between atoms: _46  and  _48
REMARK   21  A    between atoms: _48  and  _49
REMARK   22  A    between atoms: _48  and  _51
REMARK   23  A    between atoms: _51  and  _52
REMARK   24  A    between atoms: _52  and  _54
REMARK   25  A    between atoms: _54  and  ZN_284
REMARK   26  A    between atoms: _55  and  _57
REMARK   27  A    between atoms: _57  and  _58
REMARK   28  A    between atoms: _57  and  _60
REMARK   29  A    between atoms: _60  and  _61
REMARK   30  A    between atoms: _63  and  _65
REMARK   31  A    between atoms: _65  and  _66
REMARK   32  A    between atoms: _65  and  _68
REMARK   33  A    between atoms: _68  and  _69
REMARK   34  A    between atoms: _69  and  _70
REMARK   35  A    between atoms: _73  and  _75
REMARK   36  A    between atoms: _75  and  _76
REMARK   37  A    between atoms: _75  and  _78
REMARK   38  A    between atoms: _78  and  _79
REMARK   39  A    between atoms: _79  and  _80
REMARK   40  A    between atoms: _80  and  _82
REMARK   41  A    between atoms: _82  and  ZN_284
REMARK   42  A    between atoms: _83  and  _85
REMARK   43  A    between atoms: _85  and  _86
REMARK   44  A    between atoms: _89  and  _91
REMARK   45  A    between atoms: _91  and  _92
REMARK   46  A    between atoms: _91  and  _94
REMARK   47  A    between atoms: _94  and  _95
REMARK   48  A    between atoms: _105  and  _107
REMARK   49  A    between atoms: _107  and  _108
REMARK   50  A    between atoms: _110  and  _112
REMARK   51  A    between atoms: _112  and  _113
REMARK   52  A    between atoms: _112  and  _115
REMARK   53  A    between atoms: _115  and  _116
REMARK   54  A    between atoms: _118  and  _120
REMARK   55  A    between atoms: _120  and  _121
REMARK   56  A    between atoms: _120  and  _123
REMARK   57  A    between atoms: _123  and  _124
REMARK   58  A    between atoms: _127  and  _129
REMARK   59  A    between atoms: _129  and  _130
REMARK   60  A    between atoms: _129  and  _132
REMARK   61  A    between atoms: _132  and  _133
REMARK   62  A    between atoms: _136  and  _138
REMARK   63  A    between atoms: _138  and  _139
REMARK   64  A    between atoms: _138  and  _141
REMARK   65  A    between atoms: _141  and  _142
REMARK   66  A    between atoms: _145  and  _147
REMARK   67  A    between atoms: _147  and  _148
REMARK   68  A    between atoms: _147  and  _150
REMARK   69  A    between atoms: _150  and  _151
REMARK   70  A    between atoms: _154  and  _156
REMARK   71  A    between atoms: _156  and  _157
REMARK   72  A    between atoms: _156  and  _159
REMARK   73  A    between atoms: _159  and  _160
REMARK   74  A    between atoms: _163  and  _165
REMARK   75  A    between atoms: _165  and  _166
REMARK   76  A    between atoms: _165  and  _168
REMARK   77  A    between atoms: _168  and  _169
REMARK   78  A    between atoms: _171  and  _173
REMARK   79  A    between atoms: _173  and  _174
REMARK   80  A    between atoms: _173  and  _176
REMARK   81  A    between atoms: _179  and  _181
REMARK   82  A    between atoms: _181  and  _182
REMARK   83  A    between atoms: _181  and  _184
REMARK   84  A    between atoms: _184  and  _185
REMARK   85  A    between atoms: _185  and  _186
REMARK   86  A    between atoms: _189  and  _191
REMARK   87  A    between atoms: _191  and  _192
REMARK   88  A    between atoms: _191  and  _194
REMARK   89  A    between atoms: _194  and  _195
REMARK   90  A    between atoms: _198  and  _200
REMARK   91  A    between atoms: _200  and  _201
REMARK   92  A    between atoms: _200  and  _203
REMARK   93  A    between atoms: _203  and  _204
REMARK   94  A    between atoms: _207  and  _209
REMARK   95  A    between atoms: _209  and  _210
REMARK   96  A    between atoms: _209  and  _212
REMARK   97  A    between atoms: _212  and  _213
REMARK   98  A    between atoms: _218  and  _220
REMARK   99  A    between atoms: _220  and  _221
REMARK  100  A    between atoms: _220  and  _223
REMARK  101  A    between atoms: _223  and  _224
REMARK  102  A    between atoms: _229  and  _231
REMARK  103  A    between atoms: _231  and  _232
REMARK  104  A    between atoms: _231  and  _234
REMARK  105  A    between atoms: _234  and  _235
REMARK  106  A    between atoms: _238  and  _240
REMARK  107  A    between atoms: _240  and  _241
REMARK  108  A    between atoms: _240  and  _243
REMARK  109  A    between atoms: _243  and  _244
REMARK  110  A    between atoms: _251  and  _252
REMARK  111  A    between atoms: _257  and  _259
REMARK  112  A    between atoms: _259  and  _260
REMARK  113  A    between atoms: _259  and  _262
REMARK  114  A    between atoms: _262  and  _263
REMARK  115  A    between atoms: _273  and  _275
REMARK  116  A    between atoms: _275  and  _276
REMARK  117  A    between atoms: _275  and  _278
REMARK  118  A    between atoms: _278  and  _279
REMARK  119  A    between atoms: _283  and  ZN_284
REMARK                            x       y       z     vdW  Elec       q    Type
REMARK                         _______ _______ _______ _____ _____    ______ ____
ROOT
ATOM      1  O   HOH     1       1.754  16.916 -17.783  0.00  0.00    +0.000 OA
ENDROOT
TORSDOF 0
REMARK  Name = ../refined-set-2016/3pb9/3pb9_pocket.pdb
REMARK  119 active torsions:
REMARK  status: ('A' for Active; 'I' for Inactive)
REMARK    1  A    between atoms: _1  and  _3
REMARK    2  A    between atoms: _3  and  _4
REMARK    3  A    between atoms: _3  and  _6
REMARK    4  A    between atoms: _6  and  _7
REMARK    5  A    between atoms: _12  and  _14
REMARK    6  A    between atoms: _14  and  _15
REMARK    7  A    between atoms: _14  and  _17
REMARK    8  A    between atoms: _17  and  _18
REMARK    9  A    between atoms: _18  and  _19
REMARK   10  A    between atoms: _19  and  _20
REMARK   11  A    between atoms: _20  and  _21
REMARK   12  A    between atoms: _25  and  _27
REMARK   13  A    between atoms: _27  and  _28
REMARK   14  A    between atoms: _27  and  _30
REMARK   15  A    between atoms: _30  and  _31
REMARK   16  A    between atoms: _37  and  _39
REMARK   17  A    between atoms: _39  and  _40
REMARK   18  A    between atoms: _39  and  _42
REMARK   19  A    between atoms: _42  and  _43
REMARK   20  A    between atoms: _46  and  _48
REMARK   21  A    between atoms: _48  and  _49
REMARK   22  A    between atoms: _48  and  _51
REMARK   23  A    between atoms: _51  and  _52
REMARK   24  A    between atoms: _52  and  _54
REMARK   25  A    between atoms: _54  and  ZN_284
REMARK   26  A    between atoms: _55  and  _57
REMARK   27  A    between atoms: _57  and  _58
REMARK   28  A    between atoms: _57  and  _60
REMARK   29  A    between atoms: _60  and  _61
REMARK   30  A    between atoms: _63  and  _65
REMARK   31  A    between atoms: _65  and  _66
REMARK   32  A    between atoms: _65  and  _68
REMARK   33  A    between atoms: _68  and  _69
REMARK   34  A    between atoms: _69  and  _70
REMARK   35  A    between atoms: _73  and  _75
REMARK   36  A    between atoms: _75  and  _76
REMARK   37  A    between atoms: _75  and  _78
REMARK   38  A    between atoms: _78  and  _79
REMARK   39  A    between atoms: _79  and  _80
REMARK   40  A    between atoms: _80  and  _82
REMARK   41  A    between atoms: _82  and  ZN_284
REMARK   42  A    between atoms: _83  and  _85
REMARK   43  A    between atoms: _85  and  _86
REMARK   44  A    between atoms: _89  and  _91
REMARK   45  A    between atoms: _91  and  _92
REMARK   46  A    between atoms: _91  and  _94
REMARK   47  A    between atoms: _94  and  _95
REMARK   48  A    between atoms: _105  and  _107
REMARK   49  A    between atoms: _107  and  _108
REMARK   50  A    between atoms: _110  and  _112
REMARK   51  A    between atoms: _112  and  _113
REMARK   52  A    between atoms: _112  and  _115
REMARK   53  A    between atoms: _115  and  _116
REMARK   54  A    between atoms: _118  and  _120
REMARK   55  A    between atoms: _120  and  _121
REMARK   56  A    between atoms: _120  and  _123
REMARK   57  A    between atoms: _123  and  _124
REMARK   58  A    between atoms: _127  and  _129
REMARK   59  A    between atoms: _129  and  _130
REMARK   60  A    between atoms: _129  and  _132
REMARK   61  A    between atoms: _132  and  _133
REMARK   62  A    between atoms: _136  and  _138
REMARK   63  A    between atoms: _138  and  _139
REMARK   64  A    between atoms: _138  and  _141
REMARK   65  A    between atoms: _141  and  _142
REMARK   66  A    between atoms: _145  and  _147
REMARK   67  A    between atoms: _147  and  _148
REMARK   68  A    between atoms: _147  and  _150
REMARK   69  A    between atoms: _150  and  _151
REMARK   70  A    between atoms: _154  and  _156
REMARK   71  A    between atoms: _156  and  _157
REMARK   72  A    between atoms: _156  and  _159
REMARK   73  A    between atoms: _159  and  _160
REMARK   74  A    between atoms: _163  and  _165
REMARK   75  A    between atoms: _165  and  _166
REMARK   76  A    between atoms: _165  and  _168
REMARK   77  A    between atoms: _168  and  _169
REMARK   78  A    between atoms: _171  and  _173
REMARK   79  A    between atoms: _173  and  _174
REMARK   80  A    between atoms: _173  and  _176
REMARK   81  A    between atoms: _179  and  _181
REMARK   82  A    between atoms: _181  and  _182
REMARK   83  A    between atoms: _181  and  _184
REMARK   84  A    between atoms: _184  and  _185
REMARK   85  A    between atoms: _185  and  _186
REMARK   86  A    between atoms: _189  and  _191
REMARK   87  A    between atoms: _191  and  _192
REMARK   88  A    between atoms: _191  and  _194
REMARK   89  A    between atoms: _194  and  _195
REMARK   90  A    between atoms: _198  and  _200
REMARK   91  A    between atoms: _200  and  _201
REMARK   92  A    between atoms: _200  and  _203
REMARK   93  A    between atoms: _203  and  _204
REMARK   94  A    between atoms: _207  and  _209
REMARK   95  A    between atoms: _209  and  _210
REMARK   96  A    between atoms: _209  and  _212
REMARK   97  A    between atoms: _212  and  _213
REMARK   98  A    between atoms: _218  and  _220
REMARK   99  A    between atoms: _220  and  _221
REMARK  100  A    between atoms: _220  and  _223
REMARK  101  A    between atoms: _223  and  _224
REMARK  102  A    between atoms: _229  and  _231
REMARK  103  A    between atoms: _231  and  _232
REMARK  104  A    between atoms: _231  and  _234
REMARK  105  A    between atoms: _234  and  _235
REMARK  106  A    between atoms: _238  and  _240
REMARK  107  A    between atoms: _240  and  _241
REMARK  108  A    between atoms: _240  and  _243
REMARK  109  A    between atoms: _243  and  _244
REMARK  110  A    between atoms: _251  and  _252
REMARK  111  A    between atoms: _257  and  _259
REMARK  112  A    between atoms: _259  and  _260
REMARK  113  A    between atoms: _259  and  _262
REMARK  114  A    between atoms: _262  and  _263
REMARK  115  A    between atoms: _273  and  _275
REMARK  116  A    between atoms: _275  and  _276
REMARK  117  A    between atoms: _275  and  _278
REMARK  118  A    between atoms: _278  and  _279
REMARK  119  A    between atoms: _283  and  ZN_284
REMARK                            x       y       z     vdW  Elec       q    Type
REMARK                         _______ _______ _______ _____ _____    ______ ____
ROOT
ATOM      1  O   HOH     1      -0.742  15.511 -16.261  0.00  0.00    +0.000 OA
ENDROOT
TORSDOF 0
