REMARK  Name = ../refined-set-2016/3iue/3iue_pocket.pdb
REMARK  215 active torsions:
REMARK  status: ('A' for Active; 'I' for Inactive)
REMARK    1  A    between atoms: _1  and  _3
REMARK    2  A    between atoms: _3  and  _4
REMARK    3  A    between atoms: _3  and  _6
REMARK    4  A    between atoms: _10  and  _11
REMARK    5  A    between atoms: _16  and  _18
REMARK    6  A    between atoms: _18  and  _19
REMARK    7  A    between atoms: _18  and  _21
REMARK    8  A    between atoms: _21  and  _22
REMARK    9  A    between atoms: _25  and  _27
REMARK   10  A    between atoms: _27  and  _28
REMARK   11  A    between atoms: _27  and  _30
REMARK   12  A    between atoms: _30  and  _31
REMARK   13  A    between atoms: _31  and  _32
REMARK   14  A    between atoms: _34  and  _36
REMARK   15  A    between atoms: _36  and  _37
REMARK   16  A    between atoms: _39  and  _41
REMARK   17  A    between atoms: _41  and  _42
REMARK   18  A    between atoms: _45  and  _47
REMARK   19  A    between atoms: _47  and  _48
REMARK   20  A    between atoms: _47  and  _50
REMARK   21  A    between atoms: _50  and  _51
REMARK   22  A    between atoms: _54  and  _56
REMARK   23  A    between atoms: _56  and  _57
REMARK   24  A    between atoms: _56  and  _59
REMARK   25  A    between atoms: _59  and  _60
REMARK   26  A    between atoms: _65  and  _67
REMARK   27  A    between atoms: _67  and  _68
REMARK   28  A    between atoms: _67  and  _70
REMARK   29  A    between atoms: _70  and  _71
REMARK   30  A    between atoms: _71  and  _72
REMARK   31  A    between atoms: _75  and  _77
REMARK   32  A    between atoms: _77  and  _78
REMARK   33  A    between atoms: _80  and  _82
REMARK   34  A    between atoms: _82  and  _83
REMARK   35  A    between atoms: _82  and  _85
REMARK   36  A    between atoms: _85  and  _86
REMARK   37  A    between atoms: _91  and  _93
REMARK   38  A    between atoms: _93  and  _94
REMARK   39  A    between atoms: _93  and  _96
REMARK   40  A    between atoms: _96  and  _97
REMARK   41  A    between atoms: _100  and  _102
REMARK   42  A    between atoms: _102  and  _103
REMARK   43  A    between atoms: _106  and  _108
REMARK   44  A    between atoms: _108  and  _109
REMARK   45  A    between atoms: _108  and  _111
REMARK   46  A    between atoms: _111  and  _112
REMARK   47  A    between atoms: _115  and  _117
REMARK   48  A    between atoms: _117  and  _118
REMARK   49  A    between atoms: _117  and  _120
REMARK   50  A    between atoms: _123  and  _125
REMARK   51  A    between atoms: _125  and  _126
REMARK   52  A    between atoms: _125  and  _128
REMARK   53  A    between atoms: _128  and  _129
REMARK   54  A    between atoms: _131  and  _133
REMARK   55  A    between atoms: _133  and  _134
REMARK   56  A    between atoms: _133  and  _136
REMARK   57  A    between atoms: _136  and  _137
REMARK   58  A    between atoms: _140  and  _142
REMARK   59  A    between atoms: _142  and  _143
REMARK   60  A    between atoms: _142  and  _145
REMARK   61  A    between atoms: _145  and  _146
REMARK   62  A    between atoms: _152  and  _154
REMARK   63  A    between atoms: _154  and  _155
REMARK   64  A    between atoms: _154  and  _157
REMARK   65  A    between atoms: _157  and  _158
REMARK   66  A    between atoms: _163  and  _165
REMARK   67  A    between atoms: _165  and  _166
REMARK   68  A    between atoms: _165  and  _168
REMARK   69  A    between atoms: _168  and  _169
REMARK   70  A    between atoms: _169  and  _170
REMARK   71  A    between atoms: _175  and  _177
REMARK   72  A    between atoms: _177  and  _178
REMARK   73  A    between atoms: _177  and  _180
REMARK   74  A    between atoms: _180  and  _181
REMARK   75  A    between atoms: _187  and  _189
REMARK   76  A    between atoms: _189  and  _190
REMARK   77  A    between atoms: _189  and  _192
REMARK   78  A    between atoms: _192  and  _193
REMARK   79  A    between atoms: _198  and  _199
REMARK   80  A    between atoms: _202  and  _203
REMARK   81  A    between atoms: _208  and  _210
REMARK   82  A    between atoms: _210  and  _211
REMARK   83  A    between atoms: _210  and  _213
REMARK   84  A    between atoms: _213  and  _214
REMARK   85  A    between atoms: _214  and  _215
REMARK   86  A    between atoms: _218  and  _220
REMARK   87  A    between atoms: _220  and  _221
REMARK   88  A    between atoms: _220  and  _223
REMARK   89  A    between atoms: _223  and  _224
REMARK   90  A    between atoms: _229  and  _231
REMARK   91  A    between atoms: _231  and  _232
REMARK   92  A    between atoms: _231  and  _234
REMARK   93  A    between atoms: _234  and  _235
REMARK   94  A    between atoms: _241  and  _243
REMARK   95  A    between atoms: _243  and  _244
REMARK   96  A    between atoms: _243  and  _246
REMARK   97  A    between atoms: _249  and  _251
REMARK   98  A    between atoms: _251  and  _252
REMARK   99  A    between atoms: _251  and  _254
REMARK  100  A    between atoms: _257  and  _259
REMARK  101  A    between atoms: _259  and  _260
REMARK  102  A    between atoms: _259  and  _262
REMARK  103  A    between atoms: _262  and  _263
REMARK  104  A    between atoms: _269  and  _271
REMARK  105  A    between atoms: _271  and  _272
REMARK  106  A    between atoms: _271  and  _274
REMARK  107  A    between atoms: _274  and  _275
REMARK  108  A    between atoms: _281  and  _283
REMARK  109  A    between atoms: _283  and  _284
REMARK  110  A    between atoms: _286  and  _288
REMARK  111  A    between atoms: _288  and  _289
REMARK  112  A    between atoms: _288  and  _291
REMARK  113  A    between atoms: _291  and  _292
REMARK  114  A    between atoms: _292  and  _293
REMARK  115  A    between atoms: _296  and  _298
REMARK  116  A    between atoms: _298  and  _299
REMARK  117  A    between atoms: _298  and  _301
REMARK  118  A    between atoms: _301  and  _302
REMARK  119  A    between atoms: _302  and  _303
REMARK  120  A    between atoms: _303  and  _304
REMARK  121  A    between atoms: _304  and  _305
REMARK  122  A    between atoms: _309  and  _311
REMARK  123  A    between atoms: _311  and  _312
REMARK  124  A    between atoms: _311  and  _314
REMARK  125  A    between atoms: _314  and  _315
REMARK  126  A    between atoms: _318  and  _320
REMARK  127  A    between atoms: _320  and  _321
REMARK  128  A    between atoms: _320  and  _323
REMARK  129  A    between atoms: _323  and  _324
REMARK  130  A    between atoms: _329  and  _330
REMARK  131  A    between atoms: _332  and  _334
REMARK  132  A    between atoms: _334  and  _335
REMARK  133  A    between atoms: _334  and  _337
REMARK  134  A    between atoms: _337  and  _338
REMARK  135  A    between atoms: _338  and  _339
REMARK  136  A    between atoms: _344  and  _346
REMARK  137  A    between atoms: _346  and  _347
REMARK  138  A    between atoms: _346  and  _349
REMARK  139  A    between atoms: _349  and  _350
REMARK  140  A    between atoms: _353  and  _355
REMARK  141  A    between atoms: _355  and  _356
REMARK  142  A    between atoms: _355  and  _358
REMARK  143  A    between atoms: _358  and  _359
REMARK  144  A    between atoms: _362  and  _364
REMARK  145  A    between atoms: _364  and  _365
REMARK  146  A    between atoms: _367  and  _369
REMARK  147  A    between atoms: _369  and  _370
REMARK  148  A    between atoms: _369  and  _372
REMARK  149  A    between atoms: _376  and  _377
REMARK  150  A    between atoms: _382  and  _384
REMARK  151  A    between atoms: _384  and  _385
REMARK  152  A    between atoms: _384  and  _387
REMARK  153  A    between atoms: _387  and  _388
REMARK  154  A    between atoms: _391  and  _393
REMARK  155  A    between atoms: _393  and  _394
REMARK  156  A    between atoms: _393  and  _396
REMARK  157  A    between atoms: _399  and  _401
REMARK  158  A    between atoms: _401  and  _402
REMARK  159  A    between atoms: _401  and  _404
REMARK  160  A    between atoms: _404  and  _405
REMARK  161  A    between atoms: _405  and  _406
REMARK  162  A    between atoms: _406  and  _407
REMARK  163  A    between atoms: _416  and  _418
REMARK  164  A    between atoms: _418  and  _419
REMARK  165  A    between atoms: _418  and  _421
REMARK  166  A    between atoms: _421  and  _422
REMARK  167  A    between atoms: _425  and  _427
REMARK  168  A    between atoms: _427  and  _428
REMARK  169  A    between atoms: _431  and  _433
REMARK  170  A    between atoms: _433  and  _434
REMARK  171  A    between atoms: _433  and  _436
REMARK  172  A    between atoms: _436  and  _437
REMARK  173  A    between atoms: _437  and  _438
REMARK  174  A    between atoms: _440  and  _442
REMARK  175  A    between atoms: _442  and  _443
REMARK  176  A    between atoms: _442  and  _445
REMARK  177  A    between atoms: _445  and  _446
REMARK  178  A    between atoms: _448  and  _450
REMARK  179  A    between atoms: _450  and  _451
REMARK  180  A    between atoms: _450  and  _453
REMARK  181  A    between atoms: _453  and  _454
REMARK  182  A    between atoms: _456  and  _458
REMARK  183  A    between atoms: _458  and  _459
REMARK  184  A    between atoms: _458  and  _461
REMARK  185  A    between atoms: _461  and  _462
REMARK  186  A    between atoms: _462  and  _463
REMARK  187  A    between atoms: _463  and  _464
REMARK  188  A    between atoms: _473  and  _475
REMARK  189  A    between atoms: _475  and  _476
REMARK  190  A    between atoms: _475  and  _478
REMARK  191  A    between atoms: _478  and  _479
REMARK  192  A    between atoms: _484  and  _486
REMARK  193  A    between atoms: _486  and  _487
REMARK  194  A    between atoms: _486  and  _489
REMARK  195  A    between atoms: _489  and  _490
REMARK  196  A    between atoms: _490  and  _491
REMARK  197  A    between atoms: _491  and  _492
REMARK  198  A    between atoms: _501  and  _503
REMARK  199  A    between atoms: _503  and  _504
REMARK  200  A    between atoms: _503  and  _506
REMARK  201  A    between atoms: _506  and  _507
REMARK  202  A    between atoms: _507  and  _508
REMARK  203  A    between atoms: _508  and  _509
REMARK  204  A    between atoms: _518  and  _520
REMARK  205  A    between atoms: _520  and  _521
REMARK  206  A    between atoms: _520  and  _523
REMARK  207  A    between atoms: _523  and  _524
REMARK  208  A    between atoms: _527  and  _529
REMARK  209  A    between atoms: _529  and  _530
REMARK  210  A    between atoms: _529  and  _532
REMARK  211  A    between atoms: _532  and  _533
REMARK  212  A    between atoms: _536  and  _538
REMARK  213  A    between atoms: _538  and  _539
REMARK  214  A    between atoms: _538  and  _541
REMARK  215  A    between atoms: _541  and  _542
REMARK                            x       y       z     vdW  Elec       q    Type
REMARK                         _______ _______ _______ _____ _____    ______ ____
ROOT
ATOM      1  CA  HIS A   8      14.962  18.027  -3.539  0.00  0.00    +0.155 C 
ENDROOT
BRANCH   1   4
ATOM      2  C   LEU A   7      15.110  18.933  -1.280  0.00  0.00    +0.241 C 
ATOM      3  O   LEU A   7      15.672  19.988  -1.636  0.00  0.00    -0.273 OA
ATOM      4  N   HIS A   8      14.816  17.939  -2.095  0.00  0.00    -0.297 N 
ATOM      5  H   HIS A   8      14.463  17.050  -1.686  0.00  0.00    +0.150 HD
BRANCH   2   6
ATOM      6  CA  LEU A   7      14.793  18.666   0.179  0.00  0.00    +0.149 C 
BRANCH   6   8
ATOM      7  C   ALA A   6      17.027  18.695   1.189  0.00  0.00    +0.241 C 
ATOM      8  N   LEU A   7      15.808  19.220   1.067  0.00  0.00    -0.297 N 
ATOM      9  H   LEU A   7      15.570  20.062   1.630  0.00  0.00    +0.150 HD
ATOM     10  O   ALA A   6      17.482  17.811   0.442  0.00  0.00    -0.273 OA
BRANCH   7  11
ATOM     11  CA  ALA A   6      17.842  19.246   2.354  0.00  0.00    +0.149 C 
ATOM     12  CB  ALA A   6      19.236  18.546   2.453  0.00  0.00    +0.031 C 
BRANCH  11  14
ATOM     13  C   GLY A   5      16.579  17.891   3.937  0.00  0.00    +0.243 C 
ATOM     14  N   ALA A   6      17.070  19.079   3.588  0.00  0.00    -0.297 N 
ATOM     15  H   ALA A   6      16.903  19.902   4.202  0.00  0.00    +0.150 HD
ATOM     16  O   GLY A   5      16.845  16.850   3.318  0.00  0.00    -0.273 OA
BRANCH  13  17
ATOM     17  CA  GLY A   5      15.681  17.871   5.171  0.00  0.00    +0.176 C 
BRANCH  17  20
ATOM     18  C   MET A   4      16.476  15.967   6.492  0.00  0.00    +0.241 C 
ATOM     19  O   MET A   4      17.574  16.506   6.683  0.00  0.00    -0.273 OA
ATOM     20  N   GLY A   5      15.534  16.515   5.728  0.00  0.00    -0.295 N 
ATOM     21  H   GLY A   5      14.672  15.972   5.519  0.00  0.00    +0.150 HD
BRANCH  18  22
ATOM     22  CA  MET A   4      16.117  14.603   7.111  0.00  0.00    +0.149 C 
BRANCH  22  25
ATOM     23  C   THR A   3      13.818  13.895   6.780  0.00  0.00    +0.243 C 
ATOM     24  O   THR A   3      13.508  14.203   7.953  0.00  0.00    -0.273 OA
ATOM     25  N   MET A   4      15.060  13.961   6.313  0.00  0.00    -0.297 N 
ATOM     26  H   MET A   4      15.286  13.558   5.381  0.00  0.00    +0.150 HD
BRANCH  23  27
ATOM     27  CA  THR A   3      12.754  13.390   5.781  0.00  0.00    +0.176 C 
BRANCH  27  29
ATOM     28  C   PRO A   2      10.836  11.931   6.238  0.00  0.00    +0.241 C 
ATOM     29  N   THR A   3      11.499  13.055   6.473  0.00  0.00    -0.295 N 
ATOM     30  H   THR A   3      11.118  13.724   7.172  0.00  0.00    +0.150 HD
ATOM     31  O   PRO A   2      11.248  11.033   5.479  0.00  0.00    -0.273 OA
BRANCH  28  34
ATOM     32  C   VAL A   1       7.778  12.473   5.495  0.00  0.00    +0.241 C 
ATOM     33  N   PRO A   2       8.433  11.447   6.038  0.00  0.00    -0.272 N 
ATOM     34  CA  PRO A   2       9.519  11.775   6.961  0.00  0.00    +0.152 C 
ATOM     35  CB  PRO A   2       9.585  10.565   7.888  0.00  0.00    +0.031 C 
ATOM     36  CG  PRO A   2       8.650   9.477   7.256  0.00  0.00    +0.024 C 
ATOM     37  CD  PRO A   2       8.243   9.987   5.906  0.00  0.00    +0.094 C 
ATOM     38  O   VAL A   1       8.081  13.639   5.719  0.00  0.00    -0.273 OA
BRANCH  32  39
ATOM     39  CA  VAL A   1       6.593  12.143   4.556  0.00  0.00    +0.145 C 
BRANCH  39  40
ATOM     40  CB  VAL A   1       6.598  13.113   3.335  0.00  0.00    +0.025 C 
ATOM     41  CG2 VAL A   1       5.298  12.942   2.505  0.00  0.00    +0.002 C 
ATOM     42  CG1 VAL A   1       7.841  12.923   2.457  0.00  0.00    +0.002 C 
ENDBRANCH  39  40
BRANCH  39  43
ATOM     43  N   VAL A   1       5.371  12.240   5.332  0.00  0.00    -0.238 NA
ATOM     44  H   VAL A   1       5.111  13.167   5.725  0.00  0.00    +0.142 HD
ENDBRANCH  39  43
ENDBRANCH  32  39
ENDBRANCH  28  34
ENDBRANCH  27  29
BRANCH  27  45
ATOM     45  CB  THR A   3      12.531  14.509   4.740  0.00  0.00    +0.137 C 
ATOM     46  CG2 THR A   3      11.173  14.331   3.999  0.00  0.00    +0.034 C 
BRANCH  45  47
ATOM     47  OG1 THR A   3      12.522  15.778   5.406  0.00  0.00    -0.382 OA
ATOM     48  HG1 THR A   3      11.791  15.794   6.073  0.00  0.00    +0.210 HD
ENDBRANCH  45  47
ENDBRANCH  27  45
ENDBRANCH  23  27
ENDBRANCH  22  25
BRANCH  22  49
ATOM     49  CB  MET A   4      17.313  13.669   7.307  0.00  0.00    +0.041 C 
BRANCH  49  50
ATOM     50  CG  MET A   4      16.932  12.371   8.018  0.00  0.00    +0.060 C 
BRANCH  50  51
ATOM     51  SD  MET A   4      18.241  11.688   9.062  0.00  0.00    -0.139 S 
ATOM     52  CE  MET A   4      19.565  11.622   7.854  0.00  0.00    +0.069 C 
ENDBRANCH  50  51
ENDBRANCH  49  50
ENDBRANCH  22  49
ENDBRANCH  18  22
ENDBRANCH  17  20
ENDBRANCH  13  17
ENDBRANCH  11  14
ENDBRANCH   7  11
ENDBRANCH   6   8
BRANCH   6  53
ATOM     53  CB  LEU A   7      13.412  19.219   0.517  0.00  0.00    +0.029 C 
BRANCH  53  54
ATOM     54  CG  LEU A   7      12.901  19.032   1.957  0.00  0.00    +0.002 C 
ATOM     55  CD2 LEU A   7      12.907  17.561   2.334  0.00  0.00    +0.000 C 
ATOM     56  CD1 LEU A   7      11.489  19.607   2.070  0.00  0.00    +0.000 C 
ENDBRANCH  53  54
ENDBRANCH   6  53
ENDBRANCH   2   6
ENDBRANCH   1   4
BRANCH   1  57
ATOM     57  C   HIS A   8      13.702  17.488  -4.229  0.00  0.00    +0.241 C 
ATOM     58  O   HIS A   8      12.745  17.067  -3.570  0.00  0.00    -0.273 OA
ATOM     59  N   GLU A   9      13.684  17.498  -5.556  0.00  0.00    -0.297 N 
ATOM     60  H   GLU A   9      14.545  17.755  -6.080  0.00  0.00    +0.150 HD
BRANCH  59  61
ATOM     61  CA  GLU A   9      12.473  17.153  -6.285  0.00  0.00    +0.149 C 
BRANCH  61  62
ATOM     62  C   GLU A   9      11.989  15.727  -5.962  0.00  0.00    +0.241 C 
ATOM     63  N   GLY A  10      12.919  14.874  -5.532  0.00  0.00    -0.295 N 
ATOM     64  H   GLY A  10      13.911  15.183  -5.487  0.00  0.00    +0.150 HD
ATOM     65  O   GLU A   9      10.801  15.403  -6.121  0.00  0.00    -0.273 OA
BRANCH  63  66
ATOM     66  CA  GLY A  10      12.575  13.512  -5.122  0.00  0.00    +0.176 C 
BRANCH  66  67
ATOM     67  C   GLY A  10      11.684  13.487  -3.887  0.00  0.00    +0.243 C 
ATOM     68  N   HIS A  11      12.050  14.299  -2.893  0.00  0.00    -0.297 N 
ATOM     69  H   HIS A  11      12.968  14.785  -2.940  0.00  0.00    +0.150 HD
ATOM     70  O   GLY A  10      10.668  12.762  -3.840  0.00  0.00    -0.273 OA
BRANCH  68  71
ATOM     71  CA  HIS A  11      11.183  14.515  -1.743  0.00  0.00    +0.155 C 
BRANCH  71  72
ATOM     72  C   HIS A  11       9.852  15.105  -2.208  0.00  0.00    +0.241 C 
ATOM     73  O   HIS A  11       8.793  14.719  -1.713  0.00  0.00    -0.273 OA
ATOM     74  N   LEU A  12       9.899  16.048  -3.158  0.00  0.00    -0.297 N 
ATOM     75  H   LEU A  12      10.817  16.337  -3.553  0.00  0.00    +0.150 HD
BRANCH  74  76
ATOM     76  CA  LEU A  12       8.661  16.680  -3.648  0.00  0.00    +0.149 C 
BRANCH  76  77
ATOM     77  C   LEU A  12       7.721  15.673  -4.336  0.00  0.00    +0.241 C 
ATOM     78  O   LEU A  12       6.494  15.776  -4.204  0.00  0.00    -0.273 OA
ATOM     79  N   ALA A  13       8.301  14.666  -4.995  0.00  0.00    -0.297 N 
ATOM     80  H   ALA A  13       9.334  14.677  -5.113  0.00  0.00    +0.150 HD
BRANCH  79  81
ATOM     81  CA  ALA A  13       7.538  13.540  -5.562  0.00  0.00    +0.149 C 
ATOM     82  CB  ALA A  13       8.446  12.590  -6.356  0.00  0.00    +0.031 C 
BRANCH  81  83
ATOM     83  C   ALA A  13       6.789  12.782  -4.463  0.00  0.00    +0.241 C 
ATOM     84  N   LEU A  14       7.432  12.604  -3.295  0.00  0.00    -0.297 N 
ATOM     85  H   LEU A  14       8.414  12.932  -3.195  0.00  0.00    +0.150 HD
ATOM     86  O   ALA A  13       5.629  12.364  -4.672  0.00  0.00    -0.273 OA
BRANCH  84  87
ATOM     87  CA  LEU A  14       6.765  11.952  -2.158  0.00  0.00    +0.149 C 
BRANCH  87  88
ATOM     88  C   LEU A  14       5.556  12.779  -1.698  0.00  0.00    +0.241 C 
ATOM     89  O   LEU A  14       4.431  12.272  -1.499  0.00  0.00    -0.273 OA
ATOM     90  N   VAL A  15       5.788  14.079  -1.558  0.00  0.00    -0.298 N 
ATOM     91  H   VAL A  15       6.746  14.445  -1.732  0.00  0.00    +0.150 HD
BRANCH  90  92
ATOM     92  CA  VAL A  15       4.741  15.000  -1.169  0.00  0.00    +0.137 C 
BRANCH  92  93
ATOM     93  CB  VAL A  15       5.291  16.448  -1.105  0.00  0.00    +0.026 C 
ATOM     94  CG2 VAL A  15       6.236  16.624   0.097  0.00  0.00    +0.002 C 
ATOM     95  CG1 VAL A  15       4.140  17.454  -0.981  0.00  0.00    +0.002 C 
ENDBRANCH  92  93
BRANCH  92  96
ATOM     96  C   VAL A  15       3.562  14.954  -2.164  0.00  0.00    +0.227 C 
ATOM     97  O   VAL A  15       2.401  14.873  -1.770  0.00  0.00    -0.286 OA
ENDBRANCH  92  96
ENDBRANCH  90  92
ENDBRANCH  87  88
BRANCH  87  98
ATOM     98  CB  LEU A  14       7.766  11.771  -0.995  0.00  0.00    +0.029 C 
BRANCH  98  99
ATOM     99  CG  LEU A  14       9.096  11.070  -1.250  0.00  0.00    +0.002 C 
ATOM    100  CD2 LEU A  14       9.775  10.873   0.114  0.00  0.00    +0.000 C 
ATOM    101  CD1 LEU A  14       8.879   9.714  -1.935  0.00  0.00    +0.000 C 
ENDBRANCH  98  99
ENDBRANCH  87  98
ENDBRANCH  84  87
ENDBRANCH  81  83
ENDBRANCH  79  81
ENDBRANCH  76  77
BRANCH  76 102
ATOM    102  CB  LEU A  12       8.991  17.913  -4.514  0.00  0.00    +0.029 C 
BRANCH 102 103
ATOM    103  CG  LEU A  12       9.806  18.947  -3.725  0.00  0.00    +0.002 C 
ATOM    104  CD2 LEU A  12       9.225  19.203  -2.340  0.00  0.00    +0.000 C 
ATOM    105  CD1 LEU A  12       9.861  20.250  -4.485  0.00  0.00    +0.000 C 
ENDBRANCH 102 103
ENDBRANCH  76 102
ENDBRANCH  74  76
ENDBRANCH  71  72
BRANCH  71 106
ATOM    106  CB  HIS A  11      11.834  15.432  -0.691  0.00  0.00    +0.076 C 
BRANCH 106 107
ATOM    107  CG  HIS A  11      13.093  14.886  -0.082  0.00  0.00    +0.082 A 
ATOM    108  CD2 HIS A  11      13.291  13.953   0.880  0.00  0.00    +0.115 A 
ATOM    109  NE2 HIS A  11      14.646  13.848   1.073  0.00  0.00    -0.221 NA
ATOM    110  CE1 HIS A  11      15.261  14.693   0.261  0.00  0.00    +0.199 A 
ATOM    111  ND1 HIS A  11      14.346  15.318  -0.459  0.00  0.00    -0.227 NA
ENDBRANCH 106 107
ENDBRANCH  71 106
ENDBRANCH  68  71
ENDBRANCH  66  67
ENDBRANCH  63  66
ENDBRANCH  61  62
BRANCH  61 112
ATOM    112  CB  GLU A   9      12.726  17.324  -7.794  0.00  0.00    +0.041 C 
BRANCH 112 113
ATOM    113  CG  GLU A   9      11.609  16.824  -8.695  0.00  0.00    +0.116 C 
BRANCH 113 114
ATOM    114  CD  GLU A   9      10.408  17.772  -8.773  0.00  0.00    +0.365 C 
ATOM    115  OE2 GLU A   9      10.371  18.808  -8.060  0.00  0.00    -0.246 OA
ATOM    116  OE1 GLU A   9       9.493  17.472  -9.572  0.00  0.00    -0.246 OA
ENDBRANCH 113 114
ENDBRANCH 112 113
ENDBRANCH  61 112
ENDBRANCH  59  61
ENDBRANCH   1  57
BRANCH   1 117
ATOM    117  CB  HIS A   8      16.230  17.299  -3.981  0.00  0.00    +0.076 C 
BRANCH 117 118
ATOM    118  CG  HIS A   8      16.313  15.881  -3.499  0.00  0.00    +0.082 A 
ATOM    119  CD2 HIS A   8      17.149  15.282  -2.619  0.00  0.00    +0.115 A 
ATOM    120  NE2 HIS A   8      16.785  13.956  -2.553  0.00  0.00    -0.221 NA
ATOM    121  CE1 HIS A   8      15.748  13.755  -3.344  0.00  0.00    +0.199 A 
ATOM    122  ND1 HIS A   8      15.447  14.901  -3.932  0.00  0.00    -0.227 NA
ENDBRANCH 117 118
ENDBRANCH   1 117
TORSDOF 49
REMARK  Name = ../refined-set-2016/3iue/3iue_pocket.pdb
REMARK  215 active torsions:
REMARK  status: ('A' for Active; 'I' for Inactive)
REMARK    1  A    between atoms: _1  and  _3
REMARK    2  A    between atoms: _3  and  _4
REMARK    3  A    between atoms: _3  and  _6
REMARK    4  A    between atoms: _10  and  _11
REMARK    5  A    between atoms: _16  and  _18
REMARK    6  A    between atoms: _18  and  _19
REMARK    7  A    between atoms: _18  and  _21
REMARK    8  A    between atoms: _21  and  _22
REMARK    9  A    between atoms: _25  and  _27
REMARK   10  A    between atoms: _27  and  _28
REMARK   11  A    between atoms: _27  and  _30
REMARK   12  A    between atoms: _30  and  _31
REMARK   13  A    between atoms: _31  and  _32
REMARK   14  A    between atoms: _34  and  _36
REMARK   15  A    between atoms: _36  and  _37
REMARK   16  A    between atoms: _39  and  _41
REMARK   17  A    between atoms: _41  and  _42
REMARK   18  A    between atoms: _45  and  _47
REMARK   19  A    between atoms: _47  and  _48
REMARK   20  A    between atoms: _47  and  _50
REMARK   21  A    between atoms: _50  and  _51
REMARK   22  A    between atoms: _54  and  _56
REMARK   23  A    between atoms: _56  and  _57
REMARK   24  A    between atoms: _56  and  _59
REMARK   25  A    between atoms: _59  and  _60
REMARK   26  A    between atoms: _65  and  _67
REMARK   27  A    between atoms: _67  and  _68
REMARK   28  A    between atoms: _67  and  _70
REMARK   29  A    between atoms: _70  and  _71
REMARK   30  A    between atoms: _71  and  _72
REMARK   31  A    between atoms: _75  and  _77
REMARK   32  A    between atoms: _77  and  _78
REMARK   33  A    between atoms: _80  and  _82
REMARK   34  A    between atoms: _82  and  _83
REMARK   35  A    between atoms: _82  and  _85
REMARK   36  A    between atoms: _85  and  _86
REMARK   37  A    between atoms: _91  and  _93
REMARK   38  A    between atoms: _93  and  _94
REMARK   39  A    between atoms: _93  and  _96
REMARK   40  A    between atoms: _96  and  _97
REMARK   41  A    between atoms: _100  and  _102
REMARK   42  A    between atoms: _102  and  _103
REMARK   43  A    between atoms: _106  and  _108
REMARK   44  A    between atoms: _108  and  _109
REMARK   45  A    between atoms: _108  and  _111
REMARK   46  A    between atoms: _111  and  _112
REMARK   47  A    between atoms: _115  and  _117
REMARK   48  A    between atoms: _117  and  _118
REMARK   49  A    between atoms: _117  and  _120
REMARK   50  A    between atoms: _123  and  _125
REMARK   51  A    between atoms: _125  and  _126
REMARK   52  A    between atoms: _125  and  _128
REMARK   53  A    between atoms: _128  and  _129
REMARK   54  A    between atoms: _131  and  _133
REMARK   55  A    between atoms: _133  and  _134
REMARK   56  A    between atoms: _133  and  _136
REMARK   57  A    between atoms: _136  and  _137
REMARK   58  A    between atoms: _140  and  _142
REMARK   59  A    between atoms: _142  and  _143
REMARK   60  A    between atoms: _142  and  _145
REMARK   61  A    between atoms: _145  and  _146
REMARK   62  A    between atoms: _152  and  _154
REMARK   63  A    between atoms: _154  and  _155
REMARK   64  A    between atoms: _154  and  _157
REMARK   65  A    between atoms: _157  and  _158
REMARK   66  A    between atoms: _163  and  _165
REMARK   67  A    between atoms: _165  and  _166
REMARK   68  A    between atoms: _165  and  _168
REMARK   69  A    between atoms: _168  and  _169
REMARK   70  A    between atoms: _169  and  _170
REMARK   71  A    between atoms: _175  and  _177
REMARK   72  A    between atoms: _177  and  _178
REMARK   73  A    between atoms: _177  and  _180
REMARK   74  A    between atoms: _180  and  _181
REMARK   75  A    between atoms: _187  and  _189
REMARK   76  A    between atoms: _189  and  _190
REMARK   77  A    between atoms: _189  and  _192
REMARK   78  A    between atoms: _192  and  _193
REMARK   79  A    between atoms: _198  and  _199
REMARK   80  A    between atoms: _202  and  _203
REMARK   81  A    between atoms: _208  and  _210
REMARK   82  A    between atoms: _210  and  _211
REMARK   83  A    between atoms: _210  and  _213
REMARK   84  A    between atoms: _213  and  _214
REMARK   85  A    between atoms: _214  and  _215
REMARK   86  A    between atoms: _218  and  _220
REMARK   87  A    between atoms: _220  and  _221
REMARK   88  A    between atoms: _220  and  _223
REMARK   89  A    between atoms: _223  and  _224
REMARK   90  A    between atoms: _229  and  _231
REMARK   91  A    between atoms: _231  and  _232
REMARK   92  A    between atoms: _231  and  _234
REMARK   93  A    between atoms: _234  and  _235
REMARK   94  A    between atoms: _241  and  _243
REMARK   95  A    between atoms: _243  and  _244
REMARK   96  A    between atoms: _243  and  _246
REMARK   97  A    between atoms: _249  and  _251
REMARK   98  A    between atoms: _251  and  _252
REMARK   99  A    between atoms: _251  and  _254
REMARK  100  A    between atoms: _257  and  _259
REMARK  101  A    between atoms: _259  and  _260
REMARK  102  A    between atoms: _259  and  _262
REMARK  103  A    between atoms: _262  and  _263
REMARK  104  A    between atoms: _269  and  _271
REMARK  105  A    between atoms: _271  and  _272
REMARK  106  A    between atoms: _271  and  _274
REMARK  107  A    between atoms: _274  and  _275
REMARK  108  A    between atoms: _281  and  _283
REMARK  109  A    between atoms: _283  and  _284
REMARK  110  A    between atoms: _286  and  _288
REMARK  111  A    between atoms: _288  and  _289
REMARK  112  A    between atoms: _288  and  _291
REMARK  113  A    between atoms: _291  and  _292
REMARK  114  A    between atoms: _292  and  _293
REMARK  115  A    between atoms: _296  and  _298
REMARK  116  A    between atoms: _298  and  _299
REMARK  117  A    between atoms: _298  and  _301
REMARK  118  A    between atoms: _301  and  _302
REMARK  119  A    between atoms: _302  and  _303
REMARK  120  A    between atoms: _303  and  _304
REMARK  121  A    between atoms: _304  and  _305
REMARK  122  A    between atoms: _309  and  _311
REMARK  123  A    between atoms: _311  and  _312
REMARK  124  A    between atoms: _311  and  _314
REMARK  125  A    between atoms: _314  and  _315
REMARK  126  A    between atoms: _318  and  _320
REMARK  127  A    between atoms: _320  and  _321
REMARK  128  A    between atoms: _320  and  _323
REMARK  129  A    between atoms: _323  and  _324
REMARK  130  A    between atoms: _329  and  _330
REMARK  131  A    between atoms: _332  and  _334
REMARK  132  A    between atoms: _334  and  _335
REMARK  133  A    between atoms: _334  and  _337
REMARK  134  A    between atoms: _337  and  _338
REMARK  135  A    between atoms: _338  and  _339
REMARK  136  A    between atoms: _344  and  _346
REMARK  137  A    between atoms: _346  and  _347
REMARK  138  A    between atoms: _346  and  _349
REMARK  139  A    between atoms: _349  and  _350
REMARK  140  A    between atoms: _353  and  _355
REMARK  141  A    between atoms: _355  and  _356
REMARK  142  A    between atoms: _355  and  _358
REMARK  143  A    between atoms: _358  and  _359
REMARK  144  A    between atoms: _362  and  _364
REMARK  145  A    between atoms: _364  and  _365
REMARK  146  A    between atoms: _367  and  _369
REMARK  147  A    between atoms: _369  and  _370
REMARK  148  A    between atoms: _369  and  _372
REMARK  149  A    between atoms: _376  and  _377
REMARK  150  A    between atoms: _382  and  _384
REMARK  151  A    between atoms: _384  and  _385
REMARK  152  A    between atoms: _384  and  _387
REMARK  153  A    between atoms: _387  and  _388
REMARK  154  A    between atoms: _391  and  _393
REMARK  155  A    between atoms: _393  and  _394
REMARK  156  A    between atoms: _393  and  _396
REMARK  157  A    between atoms: _399  and  _401
REMARK  158  A    between atoms: _401  and  _402
REMARK  159  A    between atoms: _401  and  _404
REMARK  160  A    between atoms: _404  and  _405
REMARK  161  A    between atoms: _405  and  _406
REMARK  162  A    between atoms: _406  and  _407
REMARK  163  A    between atoms: _416  and  _418
REMARK  164  A    between atoms: _418  and  _419
REMARK  165  A    between atoms: _418  and  _421
REMARK  166  A    between atoms: _421  and  _422
REMARK  167  A    between atoms: _425  and  _427
REMARK  168  A    between atoms: _427  and  _428
REMARK  169  A    between atoms: _431  and  _433
REMARK  170  A    between atoms: _433  and  _434
REMARK  171  A    between atoms: _433  and  _436
REMARK  172  A    between atoms: _436  and  _437
REMARK  173  A    between atoms: _437  and  _438
REMARK  174  A    between atoms: _440  and  _442
REMARK  175  A    between atoms: _442  and  _443
REMARK  176  A    between atoms: _442  and  _445
REMARK  177  A    between atoms: _445  and  _446
REMARK  178  A    between atoms: _448  and  _450
REMARK  179  A    between atoms: _450  and  _451
REMARK  180  A    between atoms: _450  and  _453
REMARK  181  A    between atoms: _453  and  _454
REMARK  182  A    between atoms: _456  and  _458
REMARK  183  A    between atoms: _458  and  _459
REMARK  184  A    between atoms: _458  and  _461
REMARK  185  A    between atoms: _461  and  _462
REMARK  186  A    between atoms: _462  and  _463
REMARK  187  A    between atoms: _463  and  _464
REMARK  188  A    between atoms: _473  and  _475
REMARK  189  A    between atoms: _475  and  _476
REMARK  190  A    between atoms: _475  and  _478
REMARK  191  A    between atoms: _478  and  _479
REMARK  192  A    between atoms: _484  and  _486
REMARK  193  A    between atoms: _486  and  _487
REMARK  194  A    between atoms: _486  and  _489
REMARK  195  A    between atoms: _489  and  _490
REMARK  196  A    between atoms: _490  and  _491
REMARK  197  A    between atoms: _491  and  _492
REMARK  198  A    between atoms: _501  and  _503
REMARK  199  A    between atoms: _503  and  _504
REMARK  200  A    between atoms: _503  and  _506
REMARK  201  A    between atoms: _506  and  _507
REMARK  202  A    between atoms: _507  and  _508
REMARK  203  A    between atoms: _508  and  _509
REMARK  204  A    between atoms: _518  and  _520
REMARK  205  A    between atoms: _520  and  _521
REMARK  206  A    between atoms: _520  and  _523
REMARK  207  A    between atoms: _523  and  _524
REMARK  208  A    between atoms: _527  and  _529
REMARK  209  A    between atoms: _529  and  _530
REMARK  210  A    between atoms: _529  and  _532
REMARK  211  A    between atoms: _532  and  _533
REMARK  212  A    between atoms: _536  and  _538
REMARK  213  A    between atoms: _538  and  _539
REMARK  214  A    between atoms: _538  and  _541
REMARK  215  A    between atoms: _541  and  _542
REMARK                            x       y       z     vdW  Elec       q    Type
REMARK                         _______ _______ _______ _____ _____    ______ ____
ROOT
ATOM      1  CA  ILE A   2      12.313  17.338   8.886  0.00  0.00    +0.148 C 
ENDROOT
BRANCH   1   3
ATOM      2  C   SER A   1      10.218  16.149   8.526  0.00  0.00    +0.241 C 
ATOM      3  N   ILE A   2      10.916  17.065   9.187  0.00  0.00    -0.297 N 
ATOM      4  H   ILE A   2      10.449  17.604   9.944  0.00  0.00    +0.150 HD
ATOM      5  O   SER A   1      10.658  15.544   7.536  0.00  0.00    -0.274 OA
BRANCH   2   6
ATOM      6  CA  SER A   1       8.801  15.915   9.049  0.00  0.00    +0.174 C 
BRANCH   6   7
ATOM      7  N   SER A   1       7.872  15.740   7.922  0.00  0.00    -0.236 NA
ATOM      8  H   SER A   1       7.790  14.814   7.457  0.00  0.00    +0.142 HD
ENDBRANCH   6   7
BRANCH   6   9
ATOM      9  CB  SER A   1       8.719  14.763  10.076  0.00  0.00    +0.163 C 
BRANCH   9  10
ATOM     10  OG  SER A   1       9.173  13.533   9.526  0.00  0.00    -0.380 OA
ATOM     11  H   SER A   1      10.116  13.629   9.240  0.00  0.00    +0.211 HD
ENDBRANCH   9  10
ENDBRANCH   6   9
ENDBRANCH   2   6
ENDBRANCH   1   3
BRANCH   1  12
ATOM     12  C   ILE A   2      13.075  17.213  10.196  0.00  0.00    +0.241 C 
ATOM     13  O   ILE A   2      12.850  17.988  11.114  0.00  0.00    -0.273 OA
ATOM     14  N   PHE A   3      13.964  16.244  10.275  0.00  0.00    -0.298 N 
ATOM     15  H   PHE A   3      14.129  15.627   9.454  0.00  0.00    +0.150 HD
BRANCH  14  16
ATOM     16  CA  PHE A   3      14.724  16.029  11.514  0.00  0.00    +0.141 C 
BRANCH  16  17
ATOM     17  C   PHE A   3      15.979  15.255  11.179  0.00  0.00    +0.227 C 
ATOM     18  O   PHE A   3      15.916  14.126  10.680  0.00  0.00    -0.286 OA
ENDBRANCH  16  17
BRANCH  16  19
ATOM     19  CB  PHE A   3      13.838  15.309  12.564  0.00  0.00    +0.054 C 
BRANCH  19  20
ATOM     20  CG  PHE A   3      14.558  14.967  13.848  0.00  0.00    -0.020 A 
ATOM     21  CD2 PHE A   3      15.069  15.963  14.671  0.00  0.00    -0.004 A 
ATOM     22  CE2 PHE A   3      15.750  15.618  15.890  0.00  0.00    -0.000 A 
ATOM     23  CZ  PHE A   3      15.881  14.266  16.254  0.00  0.00    -0.000 A 
ATOM     24  CE1 PHE A   3      15.367  13.271  15.423  0.00  0.00    -0.000 A 
ATOM     25  CD1 PHE A   3      14.711  13.629  14.230  0.00  0.00    -0.004 A 
ENDBRANCH  19  20
ENDBRANCH  16  19
ENDBRANCH  14  16
ENDBRANCH   1  12
BRANCH   1  26
ATOM     26  CB  ILE A   2      12.505  18.739   8.310  0.00  0.00    +0.027 C 
ATOM     27  CG2 ILE A   2      14.020  19.060   8.218  0.00  0.00    +0.002 C 
BRANCH  26  28
ATOM     28  CG1 ILE A   2      11.907  18.844   6.905  0.00  0.00    +0.002 C 
ATOM     29  CD1 ILE A   2      11.681  20.287   6.460  0.00  0.00    +0.000 C 
ENDBRANCH  26  28
ENDBRANCH   1  26
TORSDOF 12
REMARK  Name = ../refined-set-2016/3iue/3iue_pocket.pdb
REMARK  215 active torsions:
REMARK  status: ('A' for Active; 'I' for Inactive)
REMARK    1  A    between atoms: _1  and  _3
REMARK    2  A    between atoms: _3  and  _4
REMARK    3  A    between atoms: _3  and  _6
REMARK    4  A    between atoms: _10  and  _11
REMARK    5  A    between atoms: _16  and  _18
REMARK    6  A    between atoms: _18  and  _19
REMARK    7  A    between atoms: _18  and  _21
REMARK    8  A    between atoms: _21  and  _22
REMARK    9  A    between atoms: _25  and  _27
REMARK   10  A    between atoms: _27  and  _28
REMARK   11  A    between atoms: _27  and  _30
REMARK   12  A    between atoms: _30  and  _31
REMARK   13  A    between atoms: _31  and  _32
REMARK   14  A    between atoms: _34  and  _36
REMARK   15  A    between atoms: _36  and  _37
REMARK   16  A    between atoms: _39  and  _41
REMARK   17  A    between atoms: _41  and  _42
REMARK   18  A    between atoms: _45  and  _47
REMARK   19  A    between atoms: _47  and  _48
REMARK   20  A    between atoms: _47  and  _50
REMARK   21  A    between atoms: _50  and  _51
REMARK   22  A    between atoms: _54  and  _56
REMARK   23  A    between atoms: _56  and  _57
REMARK   24  A    between atoms: _56  and  _59
REMARK   25  A    between atoms: _59  and  _60
REMARK   26  A    between atoms: _65  and  _67
REMARK   27  A    between atoms: _67  and  _68
REMARK   28  A    between atoms: _67  and  _70
REMARK   29  A    between atoms: _70  and  _71
REMARK   30  A    between atoms: _71  and  _72
REMARK   31  A    between atoms: _75  and  _77
REMARK   32  A    between atoms: _77  and  _78
REMARK   33  A    between atoms: _80  and  _82
REMARK   34  A    between atoms: _82  and  _83
REMARK   35  A    between atoms: _82  and  _85
REMARK   36  A    between atoms: _85  and  _86
REMARK   37  A    between atoms: _91  and  _93
REMARK   38  A    between atoms: _93  and  _94
REMARK   39  A    between atoms: _93  and  _96
REMARK   40  A    between atoms: _96  and  _97
REMARK   41  A    between atoms: _100  and  _102
REMARK   42  A    between atoms: _102  and  _103
REMARK   43  A    between atoms: _106  and  _108
REMARK   44  A    between atoms: _108  and  _109
REMARK   45  A    between atoms: _108  and  _111
REMARK   46  A    between atoms: _111  and  _112
REMARK   47  A    between atoms: _115  and  _117
REMARK   48  A    between atoms: _117  and  _118
REMARK   49  A    between atoms: _117  and  _120
REMARK   50  A    between atoms: _123  and  _125
REMARK   51  A    between atoms: _125  and  _126
REMARK   52  A    between atoms: _125  and  _128
REMARK   53  A    between atoms: _128  and  _129
REMARK   54  A    between atoms: _131  and  _133
REMARK   55  A    between atoms: _133  and  _134
REMARK   56  A    between atoms: _133  and  _136
REMARK   57  A    between atoms: _136  and  _137
REMARK   58  A    between atoms: _140  and  _142
REMARK   59  A    between atoms: _142  and  _143
REMARK   60  A    between atoms: _142  and  _145
REMARK   61  A    between atoms: _145  and  _146
REMARK   62  A    between atoms: _152  and  _154
REMARK   63  A    between atoms: _154  and  _155
REMARK   64  A    between atoms: _154  and  _157
REMARK   65  A    between atoms: _157  and  _158
REMARK   66  A    between atoms: _163  and  _165
REMARK   67  A    between atoms: _165  and  _166
REMARK   68  A    between atoms: _165  and  _168
REMARK   69  A    between atoms: _168  and  _169
REMARK   70  A    between atoms: _169  and  _170
REMARK   71  A    between atoms: _175  and  _177
REMARK   72  A    between atoms: _177  and  _178
REMARK   73  A    between atoms: _177  and  _180
REMARK   74  A    between atoms: _180  and  _181
REMARK   75  A    between atoms: _187  and  _189
REMARK   76  A    between atoms: _189  and  _190
REMARK   77  A    between atoms: _189  and  _192
REMARK   78  A    between atoms: _192  and  _193
REMARK   79  A    between atoms: _198  and  _199
REMARK   80  A    between atoms: _202  and  _203
REMARK   81  A    between atoms: _208  and  _210
REMARK   82  A    between atoms: _210  and  _211
REMARK   83  A    between atoms: _210  and  _213
REMARK   84  A    between atoms: _213  and  _214
REMARK   85  A    between atoms: _214  and  _215
REMARK   86  A    between atoms: _218  and  _220
REMARK   87  A    between atoms: _220  and  _221
REMARK   88  A    between atoms: _220  and  _223
REMARK   89  A    between atoms: _223  and  _224
REMARK   90  A    between atoms: _229  and  _231
REMARK   91  A    between atoms: _231  and  _232
REMARK   92  A    between atoms: _231  and  _234
REMARK   93  A    between atoms: _234  and  _235
REMARK   94  A    between atoms: _241  and  _243
REMARK   95  A    between atoms: _243  and  _244
REMARK   96  A    between atoms: _243  and  _246
REMARK   97  A    between atoms: _249  and  _251
REMARK   98  A    between atoms: _251  and  _252
REMARK   99  A    between atoms: _251  and  _254
REMARK  100  A    between atoms: _257  and  _259
REMARK  101  A    between atoms: _259  and  _260
REMARK  102  A    between atoms: _259  and  _262
REMARK  103  A    between atoms: _262  and  _263
REMARK  104  A    between atoms: _269  and  _271
REMARK  105  A    between atoms: _271  and  _272
REMARK  106  A    between atoms: _271  and  _274
REMARK  107  A    between atoms: _274  and  _275
REMARK  108  A    between atoms: _281  and  _283
REMARK  109  A    between atoms: _283  and  _284
REMARK  110  A    between atoms: _286  and  _288
REMARK  111  A    between atoms: _288  and  _289
REMARK  112  A    between atoms: _288  and  _291
REMARK  113  A    between atoms: _291  and  _292
REMARK  114  A    between atoms: _292  and  _293
REMARK  115  A    between atoms: _296  and  _298
REMARK  116  A    between atoms: _298  and  _299
REMARK  117  A    between atoms: _298  and  _301
REMARK  118  A    between atoms: _301  and  _302
REMARK  119  A    between atoms: _302  and  _303
REMARK  120  A    between atoms: _303  and  _304
REMARK  121  A    between atoms: _304  and  _305
REMARK  122  A    between atoms: _309  and  _311
REMARK  123  A    between atoms: _311  and  _312
REMARK  124  A    between atoms: _311  and  _314
REMARK  125  A    between atoms: _314  and  _315
REMARK  126  A    between atoms: _318  and  _320
REMARK  127  A    between atoms: _320  and  _321
REMARK  128  A    between atoms: _320  and  _323
REMARK  129  A    between atoms: _323  and  _324
REMARK  130  A    between atoms: _329  and  _330
REMARK  131  A    between atoms: _332  and  _334
REMARK  132  A    between atoms: _334  and  _335
REMARK  133  A    between atoms: _334  and  _337
REMARK  134  A    between atoms: _337  and  _338
REMARK  135  A    between atoms: _338  and  _339
REMARK  136  A    between atoms: _344  and  _346
REMARK  137  A    between atoms: _346  and  _347
REMARK  138  A    between atoms: _346  and  _349
REMARK  139  A    between atoms: _349  and  _350
REMARK  140  A    between atoms: _353  and  _355
REMARK  141  A    between atoms: _355  and  _356
REMARK  142  A    between atoms: _355  and  _358
REMARK  143  A    between atoms: _358  and  _359
REMARK  144  A    between atoms: _362  and  _364
REMARK  145  A    between atoms: _364  and  _365
REMARK  146  A    between atoms: _367  and  _369
REMARK  147  A    between atoms: _369  and  _370
REMARK  148  A    between atoms: _369  and  _372
REMARK  149  A    between atoms: _376  and  _377
REMARK  150  A    between atoms: _382  and  _384
REMARK  151  A    between atoms: _384  and  _385
REMARK  152  A    between atoms: _384  and  _387
REMARK  153  A    between atoms: _387  and  _388
REMARK  154  A    between atoms: _391  and  _393
REMARK  155  A    between atoms: _393  and  _394
REMARK  156  A    between atoms: _393  and  _396
REMARK  157  A    between atoms: _399  and  _401
REMARK  158  A    between atoms: _401  and  _402
REMARK  159  A    between atoms: _401  and  _404
REMARK  160  A    between atoms: _404  and  _405
REMARK  161  A    between atoms: _405  and  _406
REMARK  162  A    between atoms: _406  and  _407
REMARK  163  A    between atoms: _416  and  _418
REMARK  164  A    between atoms: _418  and  _419
REMARK  165  A    between atoms: _418  and  _421
REMARK  166  A    between atoms: _421  and  _422
REMARK  167  A    between atoms: _425  and  _427
REMARK  168  A    between atoms: _427  and  _428
REMARK  169  A    between atoms: _431  and  _433
REMARK  170  A    between atoms: _433  and  _434
REMARK  171  A    between atoms: _433  and  _436
REMARK  172  A    between atoms: _436  and  _437
REMARK  173  A    between atoms: _437  and  _438
REMARK  174  A    between atoms: _440  and  _442
REMARK  175  A    between atoms: _442  and  _443
REMARK  176  A    between atoms: _442  and  _445
REMARK  177  A    between atoms: _445  and  _446
REMARK  178  A    between atoms: _448  and  _450
REMARK  179  A    between atoms: _450  and  _451
REMARK  180  A    between atoms: _450  and  _453
REMARK  181  A    between atoms: _453  and  _454
REMARK  182  A    between atoms: _456  and  _458
REMARK  183  A    between atoms: _458  and  _459
REMARK  184  A    between atoms: _458  and  _461
REMARK  185  A    between atoms: _461  and  _462
REMARK  186  A    between atoms: _462  and  _463
REMARK  187  A    between atoms: _463  and  _464
REMARK  188  A    between atoms: _473  and  _475
REMARK  189  A    between atoms: _475  and  _476
REMARK  190  A    between atoms: _475  and  _478
REMARK  191  A    between atoms: _478  and  _479
REMARK  192  A    between atoms: _484  and  _486
REMARK  193  A    between atoms: _486  and  _487
REMARK  194  A    between atoms: _486  and  _489
REMARK  195  A    between atoms: _489  and  _490
REMARK  196  A    between atoms: _490  and  _491
REMARK  197  A    between atoms: _491  and  _492
REMARK  198  A    between atoms: _501  and  _503
REMARK  199  A    between atoms: _503  and  _504
REMARK  200  A    between atoms: _503  and  _506
REMARK  201  A    between atoms: _506  and  _507
REMARK  202  A    between atoms: _507  and  _508
REMARK  203  A    between atoms: _508  and  _509
REMARK  204  A    between atoms: _518  and  _520
REMARK  205  A    between atoms: _520  and  _521
REMARK  206  A    between atoms: _520  and  _523
REMARK  207  A    between atoms: _523  and  _524
REMARK  208  A    between atoms: _527  and  _529
REMARK  209  A    between atoms: _529  and  _530
REMARK  210  A    between atoms: _529  and  _532
REMARK  211  A    between atoms: _532  and  _533
REMARK  212  A    between atoms: _536  and  _538
REMARK  213  A    between atoms: _538  and  _539
REMARK  214  A    between atoms: _538  and  _541
REMARK  215  A    between atoms: _541  and  _542
REMARK                            x       y       z     vdW  Elec       q    Type
REMARK                         _______ _______ _______ _____ _____    ______ ____
ROOT
ATOM      1  CB  ASN A   1      17.619  10.899  13.077  0.00  0.00    +0.110 C 
ENDROOT
BRANCH   1   2
ATOM      2  CG  ASN A   1      17.615   9.859  14.161  0.00  0.00    +0.221 C 
ATOM      3  OD1 ASN A   1      17.613  10.185  15.344  0.00  0.00    -0.275 OA
ATOM      4  ND2 ASN A   1      17.642   8.581  13.757  0.00  0.00    -0.329 N 
ATOM      5 HD21 ASN A   1      17.662   7.814  14.459  0.00  0.00    +0.145 HD
ATOM      6 HD22 ASN A   1      17.642   8.357  12.742  0.00  0.00    +0.145 HD
ENDBRANCH   1   2
BRANCH   1   7
ATOM      7  CA  ASN A   1      18.412  12.153  13.457  0.00  0.00    +0.142 C 
BRANCH   7   8
ATOM      8  N   ASN A   1      18.444  13.038  12.280  0.00  0.00    -0.239 NA
ATOM      9  H   ASN A   1      18.293  12.636  11.333  0.00  0.00    +0.142 HD
ENDBRANCH   7   8
BRANCH   7  10
ATOM     10  C   ASN A   1      19.815  11.767  13.939  0.00  0.00    +0.225 C 
ATOM     11  O   ASN A   1      20.508  10.990  13.271  0.00  0.00    -0.287 OA
ENDBRANCH   7  10
ENDBRANCH   1   7
TORSDOF 4
REMARK  Name = ../refined-set-2016/3iue/3iue_pocket.pdb
REMARK  215 active torsions:
REMARK  status: ('A' for Active; 'I' for Inactive)
REMARK    1  A    between atoms: _1  and  _3
REMARK    2  A    between atoms: _3  and  _4
REMARK    3  A    between atoms: _3  and  _6
REMARK    4  A    between atoms: _10  and  _11
REMARK    5  A    between atoms: _16  and  _18
REMARK    6  A    between atoms: _18  and  _19
REMARK    7  A    between atoms: _18  and  _21
REMARK    8  A    between atoms: _21  and  _22
REMARK    9  A    between atoms: _25  and  _27
REMARK   10  A    between atoms: _27  and  _28
REMARK   11  A    between atoms: _27  and  _30
REMARK   12  A    between atoms: _30  and  _31
REMARK   13  A    between atoms: _31  and  _32
REMARK   14  A    between atoms: _34  and  _36
REMARK   15  A    between atoms: _36  and  _37
REMARK   16  A    between atoms: _39  and  _41
REMARK   17  A    between atoms: _41  and  _42
REMARK   18  A    between atoms: _45  and  _47
REMARK   19  A    between atoms: _47  and  _48
REMARK   20  A    between atoms: _47  and  _50
REMARK   21  A    between atoms: _50  and  _51
REMARK   22  A    between atoms: _54  and  _56
REMARK   23  A    between atoms: _56  and  _57
REMARK   24  A    between atoms: _56  and  _59
REMARK   25  A    between atoms: _59  and  _60
REMARK   26  A    between atoms: _65  and  _67
REMARK   27  A    between atoms: _67  and  _68
REMARK   28  A    between atoms: _67  and  _70
REMARK   29  A    between atoms: _70  and  _71
REMARK   30  A    between atoms: _71  and  _72
REMARK   31  A    between atoms: _75  and  _77
REMARK   32  A    between atoms: _77  and  _78
REMARK   33  A    between atoms: _80  and  _82
REMARK   34  A    between atoms: _82  and  _83
REMARK   35  A    between atoms: _82  and  _85
REMARK   36  A    between atoms: _85  and  _86
REMARK   37  A    between atoms: _91  and  _93
REMARK   38  A    between atoms: _93  and  _94
REMARK   39  A    between atoms: _93  and  _96
REMARK   40  A    between atoms: _96  and  _97
REMARK   41  A    between atoms: _100  and  _102
REMARK   42  A    between atoms: _102  and  _103
REMARK   43  A    between atoms: _106  and  _108
REMARK   44  A    between atoms: _108  and  _109
REMARK   45  A    between atoms: _108  and  _111
REMARK   46  A    between atoms: _111  and  _112
REMARK   47  A    between atoms: _115  and  _117
REMARK   48  A    between atoms: _117  and  _118
REMARK   49  A    between atoms: _117  and  _120
REMARK   50  A    between atoms: _123  and  _125
REMARK   51  A    between atoms: _125  and  _126
REMARK   52  A    between atoms: _125  and  _128
REMARK   53  A    between atoms: _128  and  _129
REMARK   54  A    between atoms: _131  and  _133
REMARK   55  A    between atoms: _133  and  _134
REMARK   56  A    between atoms: _133  and  _136
REMARK   57  A    between atoms: _136  and  _137
REMARK   58  A    between atoms: _140  and  _142
REMARK   59  A    between atoms: _142  and  _143
REMARK   60  A    between atoms: _142  and  _145
REMARK   61  A    between atoms: _145  and  _146
REMARK   62  A    between atoms: _152  and  _154
REMARK   63  A    between atoms: _154  and  _155
REMARK   64  A    between atoms: _154  and  _157
REMARK   65  A    between atoms: _157  and  _158
REMARK   66  A    between atoms: _163  and  _165
REMARK   67  A    between atoms: _165  and  _166
REMARK   68  A    between atoms: _165  and  _168
REMARK   69  A    between atoms: _168  and  _169
REMARK   70  A    between atoms: _169  and  _170
REMARK   71  A    between atoms: _175  and  _177
REMARK   72  A    between atoms: _177  and  _178
REMARK   73  A    between atoms: _177  and  _180
REMARK   74  A    between atoms: _180  and  _181
REMARK   75  A    between atoms: _187  and  _189
REMARK   76  A    between atoms: _189  and  _190
REMARK   77  A    between atoms: _189  and  _192
REMARK   78  A    between atoms: _192  and  _193
REMARK   79  A    between atoms: _198  and  _199
REMARK   80  A    between atoms: _202  and  _203
REMARK   81  A    between atoms: _208  and  _210
REMARK   82  A    between atoms: _210  and  _211
REMARK   83  A    between atoms: _210  and  _213
REMARK   84  A    between atoms: _213  and  _214
REMARK   85  A    between atoms: _214  and  _215
REMARK   86  A    between atoms: _218  and  _220
REMARK   87  A    between atoms: _220  and  _221
REMARK   88  A    between atoms: _220  and  _223
REMARK   89  A    between atoms: _223  and  _224
REMARK   90  A    between atoms: _229  and  _231
REMARK   91  A    between atoms: _231  and  _232
REMARK   92  A    between atoms: _231  and  _234
REMARK   93  A    between atoms: _234  and  _235
REMARK   94  A    between atoms: _241  and  _243
REMARK   95  A    between atoms: _243  and  _244
REMARK   96  A    between atoms: _243  and  _246
REMARK   97  A    between atoms: _249  and  _251
REMARK   98  A    between atoms: _251  and  _252
REMARK   99  A    between atoms: _251  and  _254
REMARK  100  A    between atoms: _257  and  _259
REMARK  101  A    between atoms: _259  and  _260
REMARK  102  A    between atoms: _259  and  _262
REMARK  103  A    between atoms: _262  and  _263
REMARK  104  A    between atoms: _269  and  _271
REMARK  105  A    between atoms: _271  and  _272
REMARK  106  A    between atoms: _271  and  _274
REMARK  107  A    between atoms: _274  and  _275
REMARK  108  A    between atoms: _281  and  _283
REMARK  109  A    between atoms: _283  and  _284
REMARK  110  A    between atoms: _286  and  _288
REMARK  111  A    between atoms: _288  and  _289
REMARK  112  A    between atoms: _288  and  _291
REMARK  113  A    between atoms: _291  and  _292
REMARK  114  A    between atoms: _292  and  _293
REMARK  115  A    between atoms: _296  and  _298
REMARK  116  A    between atoms: _298  and  _299
REMARK  117  A    between atoms: _298  and  _301
REMARK  118  A    between atoms: _301  and  _302
REMARK  119  A    between atoms: _302  and  _303
REMARK  120  A    between atoms: _303  and  _304
REMARK  121  A    between atoms: _304  and  _305
REMARK  122  A    between atoms: _309  and  _311
REMARK  123  A    between atoms: _311  and  _312
REMARK  124  A    between atoms: _311  and  _314
REMARK  125  A    between atoms: _314  and  _315
REMARK  126  A    between atoms: _318  and  _320
REMARK  127  A    between atoms: _320  and  _321
REMARK  128  A    between atoms: _320  and  _323
REMARK  129  A    between atoms: _323  and  _324
REMARK  130  A    between atoms: _329  and  _330
REMARK  131  A    between atoms: _332  and  _334
REMARK  132  A    between atoms: _334  and  _335
REMARK  133  A    between atoms: _334  and  _337
REMARK  134  A    between atoms: _337  and  _338
REMARK  135  A    between atoms: _338  and  _339
REMARK  136  A    between atoms: _344  and  _346
REMARK  137  A    between atoms: _346  and  _347
REMARK  138  A    between atoms: _346  and  _349
REMARK  139  A    between atoms: _349  and  _350
REMARK  140  A    between atoms: _353  and  _355
REMARK  141  A    between atoms: _355  and  _356
REMARK  142  A    between atoms: _355  and  _358
REMARK  143  A    between atoms: _358  and  _359
REMARK  144  A    between atoms: _362  and  _364
REMARK  145  A    between atoms: _364  and  _365
REMARK  146  A    between atoms: _367  and  _369
REMARK  147  A    between atoms: _369  and  _370
REMARK  148  A    between atoms: _369  and  _372
REMARK  149  A    between atoms: _376  and  _377
REMARK  150  A    between atoms: _382  and  _384
REMARK  151  A    between atoms: _384  and  _385
REMARK  152  A    between atoms: _384  and  _387
REMARK  153  A    between atoms: _387  and  _388
REMARK  154  A    between atoms: _391  and  _393
REMARK  155  A    between atoms: _393  and  _394
REMARK  156  A    between atoms: _393  and  _396
REMARK  157  A    between atoms: _399  and  _401
REMARK  158  A    between atoms: _401  and  _402
REMARK  159  A    between atoms: _401  and  _404
REMARK  160  A    between atoms: _404  and  _405
REMARK  161  A    between atoms: _405  and  _406
REMARK  162  A    between atoms: _406  and  _407
REMARK  163  A    between atoms: _416  and  _418
REMARK  164  A    between atoms: _418  and  _419
REMARK  165  A    between atoms: _418  and  _421
REMARK  166  A    between atoms: _421  and  _422
REMARK  167  A    between atoms: _425  and  _427
REMARK  168  A    between atoms: _427  and  _428
REMARK  169  A    between atoms: _431  and  _433
REMARK  170  A    between atoms: _433  and  _434
REMARK  171  A    between atoms: _433  and  _436
REMARK  172  A    between atoms: _436  and  _437
REMARK  173  A    between atoms: _437  and  _438
REMARK  174  A    between atoms: _440  and  _442
REMARK  175  A    between atoms: _442  and  _443
REMARK  176  A    between atoms: _442  and  _445
REMARK  177  A    between atoms: _445  and  _446
REMARK  178  A    between atoms: _448  and  _450
REMARK  179  A    between atoms: _450  and  _451
REMARK  180  A    between atoms: _450  and  _453
REMARK  181  A    between atoms: _453  and  _454
REMARK  182  A    between atoms: _456  and  _458
REMARK  183  A    between atoms: _458  and  _459
REMARK  184  A    between atoms: _458  and  _461
REMARK  185  A    between atoms: _461  and  _462
REMARK  186  A    between atoms: _462  and  _463
REMARK  187  A    between atoms: _463  and  _464
REMARK  188  A    between atoms: _473  and  _475
REMARK  189  A    between atoms: _475  and  _476
REMARK  190  A    between atoms: _475  and  _478
REMARK  191  A    between atoms: _478  and  _479
REMARK  192  A    between atoms: _484  and  _486
REMARK  193  A    between atoms: _486  and  _487
REMARK  194  A    between atoms: _486  and  _489
REMARK  195  A    between atoms: _489  and  _490
REMARK  196  A    between atoms: _490  and  _491
REMARK  197  A    between atoms: _491  and  _492
REMARK  198  A    between atoms: _501  and  _503
REMARK  199  A    between atoms: _503  and  _504
REMARK  200  A    between atoms: _503  and  _506
REMARK  201  A    between atoms: _506  and  _507
REMARK  202  A    between atoms: _507  and  _508
REMARK  203  A    between atoms: _508  and  _509
REMARK  204  A    between atoms: _518  and  _520
REMARK  205  A    between atoms: _520  and  _521
REMARK  206  A    between atoms: _520  and  _523
REMARK  207  A    between atoms: _523  and  _524
REMARK  208  A    between atoms: _527  and  _529
REMARK  209  A    between atoms: _529  and  _530
REMARK  210  A    between atoms: _529  and  _532
REMARK  211  A    between atoms: _532  and  _533
REMARK  212  A    between atoms: _536  and  _538
REMARK  213  A    between atoms: _538  and  _539
REMARK  214  A    between atoms: _538  and  _541
REMARK  215  A    between atoms: _541  and  _542
REMARK                            x       y       z     vdW  Elec       q    Type
REMARK                         _______ _______ _______ _____ _____    ______ ____
ROOT
ATOM      1  C   GLN A   1      23.037   7.290  12.421  0.00  0.00    +0.238 C 
ATOM      2  N   PHE A   2      23.731   8.196  13.105  0.00  0.00    -0.298 N 
ATOM      3  H   PHE A   2      23.268   8.699  13.889  0.00  0.00    +0.150 HD
ATOM      4  O   GLN A   1      23.475   6.762  11.396  0.00  0.00    -0.274 OA
ENDROOT
BRANCH   1   5
ATOM      5  CA  GLN A   1      21.634   6.917  12.978  0.00  0.00    +0.145 C 
BRANCH   5   6
ATOM      6  N   GLN A   1      21.239   7.738  14.133  0.00  0.00    -0.238 NA
ATOM      7  H   GLN A   1      20.837   8.683  13.971  0.00  0.00    +0.142 HD
ENDBRANCH   5   6
BRANCH   5   8
ATOM      8  CB  GLN A   1      20.560   6.940  11.882  0.00  0.00    +0.036 C 
BRANCH   8   9
ATOM      9  CG  GLN A   1      20.411   8.265  11.165  0.00  0.00    +0.087 C 
BRANCH   9  10
ATOM     10  CD  GLN A   1      19.215   8.302  10.229  0.00  0.00    +0.219 C 
ATOM     11  NE2 GLN A   1      18.005   8.316  10.810  0.00  0.00    -0.329 N 
ATOM     12 HE21 GLN A   1      17.926   8.312  11.847  0.00  0.00    +0.145 HD
ATOM     13 HE22 GLN A   1      17.147   8.331  10.223  0.00  0.00    +0.145 HD
ATOM     14  OE1 GLN A   1      19.372   8.306   8.983  0.00  0.00    -0.275 OA
ENDBRANCH   9  10
ENDBRANCH   8   9
ENDBRANCH   5   8
ENDBRANCH   1   5
BRANCH   2  15
ATOM     15  CA  PHE A   2      25.132   8.509  12.788  0.00  0.00    +0.141 C 
BRANCH  15  16
ATOM     16  C   PHE A   2      26.070   7.992  13.887  0.00  0.00    +0.227 C 
ATOM     17  O   PHE A   2      25.648   7.795  15.032  0.00  0.00    -0.286 OA
ENDBRANCH  15  16
BRANCH  15  18
ATOM     18  CB  PHE A   2      25.317  10.019  12.644  0.00  0.00    +0.054 C 
BRANCH  18  19
ATOM     19  CG  PHE A   2      24.500  10.645  11.551  0.00  0.00    -0.020 A 
ATOM     20  CD2 PHE A   2      23.180  11.063  11.777  0.00  0.00    -0.004 A 
ATOM     21  CE2 PHE A   2      22.441  11.684  10.773  0.00  0.00    -0.000 A 
ATOM     22  CZ  PHE A   2      23.006  11.897   9.522  0.00  0.00    -0.000 A 
ATOM     23  CE1 PHE A   2      24.316  11.479   9.280  0.00  0.00    -0.000 A 
ATOM     24  CD1 PHE A   2      25.059  10.865  10.301  0.00  0.00    -0.004 A 
ENDBRANCH  18  19
ENDBRANCH  15  18
ENDBRANCH   2  15
TORSDOF 9
REMARK  Name = ../refined-set-2016/3iue/3iue_pocket.pdb
REMARK  215 active torsions:
REMARK  status: ('A' for Active; 'I' for Inactive)
REMARK    1  A    between atoms: _1  and  _3
REMARK    2  A    between atoms: _3  and  _4
REMARK    3  A    between atoms: _3  and  _6
REMARK    4  A    between atoms: _10  and  _11
REMARK    5  A    between atoms: _16  and  _18
REMARK    6  A    between atoms: _18  and  _19
REMARK    7  A    between atoms: _18  and  _21
REMARK    8  A    between atoms: _21  and  _22
REMARK    9  A    between atoms: _25  and  _27
REMARK   10  A    between atoms: _27  and  _28
REMARK   11  A    between atoms: _27  and  _30
REMARK   12  A    between atoms: _30  and  _31
REMARK   13  A    between atoms: _31  and  _32
REMARK   14  A    between atoms: _34  and  _36
REMARK   15  A    between atoms: _36  and  _37
REMARK   16  A    between atoms: _39  and  _41
REMARK   17  A    between atoms: _41  and  _42
REMARK   18  A    between atoms: _45  and  _47
REMARK   19  A    between atoms: _47  and  _48
REMARK   20  A    between atoms: _47  and  _50
REMARK   21  A    between atoms: _50  and  _51
REMARK   22  A    between atoms: _54  and  _56
REMARK   23  A    between atoms: _56  and  _57
REMARK   24  A    between atoms: _56  and  _59
REMARK   25  A    between atoms: _59  and  _60
REMARK   26  A    between atoms: _65  and  _67
REMARK   27  A    between atoms: _67  and  _68
REMARK   28  A    between atoms: _67  and  _70
REMARK   29  A    between atoms: _70  and  _71
REMARK   30  A    between atoms: _71  and  _72
REMARK   31  A    between atoms: _75  and  _77
REMARK   32  A    between atoms: _77  and  _78
REMARK   33  A    between atoms: _80  and  _82
REMARK   34  A    between atoms: _82  and  _83
REMARK   35  A    between atoms: _82  and  _85
REMARK   36  A    between atoms: _85  and  _86
REMARK   37  A    between atoms: _91  and  _93
REMARK   38  A    between atoms: _93  and  _94
REMARK   39  A    between atoms: _93  and  _96
REMARK   40  A    between atoms: _96  and  _97
REMARK   41  A    between atoms: _100  and  _102
REMARK   42  A    between atoms: _102  and  _103
REMARK   43  A    between atoms: _106  and  _108
REMARK   44  A    between atoms: _108  and  _109
REMARK   45  A    between atoms: _108  and  _111
REMARK   46  A    between atoms: _111  and  _112
REMARK   47  A    between atoms: _115  and  _117
REMARK   48  A    between atoms: _117  and  _118
REMARK   49  A    between atoms: _117  and  _120
REMARK   50  A    between atoms: _123  and  _125
REMARK   51  A    between atoms: _125  and  _126
REMARK   52  A    between atoms: _125  and  _128
REMARK   53  A    between atoms: _128  and  _129
REMARK   54  A    between atoms: _131  and  _133
REMARK   55  A    between atoms: _133  and  _134
REMARK   56  A    between atoms: _133  and  _136
REMARK   57  A    between atoms: _136  and  _137
REMARK   58  A    between atoms: _140  and  _142
REMARK   59  A    between atoms: _142  and  _143
REMARK   60  A    between atoms: _142  and  _145
REMARK   61  A    between atoms: _145  and  _146
REMARK   62  A    between atoms: _152  and  _154
REMARK   63  A    between atoms: _154  and  _155
REMARK   64  A    between atoms: _154  and  _157
REMARK   65  A    between atoms: _157  and  _158
REMARK   66  A    between atoms: _163  and  _165
REMARK   67  A    between atoms: _165  and  _166
REMARK   68  A    between atoms: _165  and  _168
REMARK   69  A    between atoms: _168  and  _169
REMARK   70  A    between atoms: _169  and  _170
REMARK   71  A    between atoms: _175  and  _177
REMARK   72  A    between atoms: _177  and  _178
REMARK   73  A    between atoms: _177  and  _180
REMARK   74  A    between atoms: _180  and  _181
REMARK   75  A    between atoms: _187  and  _189
REMARK   76  A    between atoms: _189  and  _190
REMARK   77  A    between atoms: _189  and  _192
REMARK   78  A    between atoms: _192  and  _193
REMARK   79  A    between atoms: _198  and  _199
REMARK   80  A    between atoms: _202  and  _203
REMARK   81  A    between atoms: _208  and  _210
REMARK   82  A    between atoms: _210  and  _211
REMARK   83  A    between atoms: _210  and  _213
REMARK   84  A    between atoms: _213  and  _214
REMARK   85  A    between atoms: _214  and  _215
REMARK   86  A    between atoms: _218  and  _220
REMARK   87  A    between atoms: _220  and  _221
REMARK   88  A    between atoms: _220  and  _223
REMARK   89  A    between atoms: _223  and  _224
REMARK   90  A    between atoms: _229  and  _231
REMARK   91  A    between atoms: _231  and  _232
REMARK   92  A    between atoms: _231  and  _234
REMARK   93  A    between atoms: _234  and  _235
REMARK   94  A    between atoms: _241  and  _243
REMARK   95  A    between atoms: _243  and  _244
REMARK   96  A    between atoms: _243  and  _246
REMARK   97  A    between atoms: _249  and  _251
REMARK   98  A    between atoms: _251  and  _252
REMARK   99  A    between atoms: _251  and  _254
REMARK  100  A    between atoms: _257  and  _259
REMARK  101  A    between atoms: _259  and  _260
REMARK  102  A    between atoms: _259  and  _262
REMARK  103  A    between atoms: _262  and  _263
REMARK  104  A    between atoms: _269  and  _271
REMARK  105  A    between atoms: _271  and  _272
REMARK  106  A    between atoms: _271  and  _274
REMARK  107  A    between atoms: _274  and  _275
REMARK  108  A    between atoms: _281  and  _283
REMARK  109  A    between atoms: _283  and  _284
REMARK  110  A    between atoms: _286  and  _288
REMARK  111  A    between atoms: _288  and  _289
REMARK  112  A    between atoms: _288  and  _291
REMARK  113  A    between atoms: _291  and  _292
REMARK  114  A    between atoms: _292  and  _293
REMARK  115  A    between atoms: _296  and  _298
REMARK  116  A    between atoms: _298  and  _299
REMARK  117  A    between atoms: _298  and  _301
REMARK  118  A    between atoms: _301  and  _302
REMARK  119  A    between atoms: _302  and  _303
REMARK  120  A    between atoms: _303  and  _304
REMARK  121  A    between atoms: _304  and  _305
REMARK  122  A    between atoms: _309  and  _311
REMARK  123  A    between atoms: _311  and  _312
REMARK  124  A    between atoms: _311  and  _314
REMARK  125  A    between atoms: _314  and  _315
REMARK  126  A    between atoms: _318  and  _320
REMARK  127  A    between atoms: _320  and  _321
REMARK  128  A    between atoms: _320  and  _323
REMARK  129  A    between atoms: _323  and  _324
REMARK  130  A    between atoms: _329  and  _330
REMARK  131  A    between atoms: _332  and  _334
REMARK  132  A    between atoms: _334  and  _335
REMARK  133  A    between atoms: _334  and  _337
REMARK  134  A    between atoms: _337  and  _338
REMARK  135  A    between atoms: _338  and  _339
REMARK  136  A    between atoms: _344  and  _346
REMARK  137  A    between atoms: _346  and  _347
REMARK  138  A    between atoms: _346  and  _349
REMARK  139  A    between atoms: _349  and  _350
REMARK  140  A    between atoms: _353  and  _355
REMARK  141  A    between atoms: _355  and  _356
REMARK  142  A    between atoms: _355  and  _358
REMARK  143  A    between atoms: _358  and  _359
REMARK  144  A    between atoms: _362  and  _364
REMARK  145  A    between atoms: _364  and  _365
REMARK  146  A    between atoms: _367  and  _369
REMARK  147  A    between atoms: _369  and  _370
REMARK  148  A    between atoms: _369  and  _372
REMARK  149  A    between atoms: _376  and  _377
REMARK  150  A    between atoms: _382  and  _384
REMARK  151  A    between atoms: _384  and  _385
REMARK  152  A    between atoms: _384  and  _387
REMARK  153  A    between atoms: _387  and  _388
REMARK  154  A    between atoms: _391  and  _393
REMARK  155  A    between atoms: _393  and  _394
REMARK  156  A    between atoms: _393  and  _396
REMARK  157  A    between atoms: _399  and  _401
REMARK  158  A    between atoms: _401  and  _402
REMARK  159  A    between atoms: _401  and  _404
REMARK  160  A    between atoms: _404  and  _405
REMARK  161  A    between atoms: _405  and  _406
REMARK  162  A    between atoms: _406  and  _407
REMARK  163  A    between atoms: _416  and  _418
REMARK  164  A    between atoms: _418  and  _419
REMARK  165  A    between atoms: _418  and  _421
REMARK  166  A    between atoms: _421  and  _422
REMARK  167  A    between atoms: _425  and  _427
REMARK  168  A    between atoms: _427  and  _428
REMARK  169  A    between atoms: _431  and  _433
REMARK  170  A    between atoms: _433  and  _434
REMARK  171  A    between atoms: _433  and  _436
REMARK  172  A    between atoms: _436  and  _437
REMARK  173  A    between atoms: _437  and  _438
REMARK  174  A    between atoms: _440  and  _442
REMARK  175  A    between atoms: _442  and  _443
REMARK  176  A    between atoms: _442  and  _445
REMARK  177  A    between atoms: _445  and  _446
REMARK  178  A    between atoms: _448  and  _450
REMARK  179  A    between atoms: _450  and  _451
REMARK  180  A    between atoms: _450  and  _453
REMARK  181  A    between atoms: _453  and  _454
REMARK  182  A    between atoms: _456  and  _458
REMARK  183  A    between atoms: _458  and  _459
REMARK  184  A    between atoms: _458  and  _461
REMARK  185  A    between atoms: _461  and  _462
REMARK  186  A    between atoms: _462  and  _463
REMARK  187  A    between atoms: _463  and  _464
REMARK  188  A    between atoms: _473  and  _475
REMARK  189  A    between atoms: _475  and  _476
REMARK  190  A    between atoms: _475  and  _478
REMARK  191  A    between atoms: _478  and  _479
REMARK  192  A    between atoms: _484  and  _486
REMARK  193  A    between atoms: _486  and  _487
REMARK  194  A    between atoms: _486  and  _489
REMARK  195  A    between atoms: _489  and  _490
REMARK  196  A    between atoms: _490  and  _491
REMARK  197  A    between atoms: _491  and  _492
REMARK  198  A    between atoms: _501  and  _503
REMARK  199  A    between atoms: _503  and  _504
REMARK  200  A    between atoms: _503  and  _506
REMARK  201  A    between atoms: _506  and  _507
REMARK  202  A    between atoms: _507  and  _508
REMARK  203  A    between atoms: _508  and  _509
REMARK  204  A    between atoms: _518  and  _520
REMARK  205  A    between atoms: _520  and  _521
REMARK  206  A    between atoms: _520  and  _523
REMARK  207  A    between atoms: _523  and  _524
REMARK  208  A    between atoms: _527  and  _529
REMARK  209  A    between atoms: _529  and  _530
REMARK  210  A    between atoms: _529  and  _532
REMARK  211  A    between atoms: _532  and  _533
REMARK  212  A    between atoms: _536  and  _538
REMARK  213  A    between atoms: _538  and  _539
REMARK  214  A    between atoms: _538  and  _541
REMARK  215  A    between atoms: _541  and  _542
REMARK                            x       y       z     vdW  Elec       q    Type
REMARK                         _______ _______ _______ _____ _____    ______ ____
ROOT
ATOM      1  CA  TYR A   1      24.936  16.495   6.916  0.00  0.00    +0.149 C 
ENDROOT
BRANCH   1   2
ATOM      2  C   TYR A   1      24.369  17.809   6.374  0.00  0.00    +0.242 C 
ATOM      3  O   TYR A   1      24.345  18.815   7.086  0.00  0.00    -0.273 OA
ATOM      4  N   PRO A   2      23.927  17.822   5.089  0.00  0.00    -0.273 N 
ATOM      5  CA  PRO A   2      23.450  19.111   4.552  0.00  0.00    +0.140 C 
ATOM      6  CB  PRO A   2      23.100  18.791   3.090  0.00  0.00    +0.030 C 
ATOM      7  CG  PRO A   2      22.941  17.293   3.039  0.00  0.00    +0.024 C 
ATOM      8  CD  PRO A   2      23.858  16.741   4.090  0.00  0.00    +0.094 C 
BRANCH   5   9
ATOM      9  C   PRO A   2      22.228  19.638   5.281  0.00  0.00    +0.227 C 
ATOM     10  O   PRO A   2      21.276  18.889   5.547  0.00  0.00    -0.286 OA
ENDBRANCH   5   9
ENDBRANCH   1   2
BRANCH   1  11
ATOM     11  N   TYR A   1      26.215  16.664   7.623  0.00  0.00    -0.238 NA
ATOM     12  H   TYR A   1      26.323  16.320   8.599  0.00  0.00    +0.142 HD
ENDBRANCH   1  11
BRANCH   1  13
ATOM     13  CB  TYR A   1      23.897  15.788   7.787  0.00  0.00    +0.053 C 
BRANCH  13  14
ATOM     14  CG  TYR A   1      22.833  15.130   6.936  0.00  0.00    -0.020 A 
ATOM     15  CD2 TYR A   1      21.609  15.761   6.681  0.00  0.00    -0.001 A 
ATOM     16  CE2 TYR A   1      20.621  15.150   5.871  0.00  0.00    +0.036 A 
ATOM     17  CZ  TYR A   1      20.878  13.902   5.314  0.00  0.00    +0.134 A 
ATOM     18  CE1 TYR A   1      22.085  13.264   5.559  0.00  0.00    +0.036 A 
ATOM     19  CD1 TYR A   1      23.059  13.881   6.364  0.00  0.00    -0.001 A 
BRANCH  17  20
ATOM     20  OH  TYR A   1      19.943  13.259   4.526  0.00  0.00    -0.506 OA
ATOM     21  HH  TYR A   1      19.118  13.107   5.052  0.00  0.00    +0.292 HD
ENDBRANCH  17  20
ENDBRANCH  13  14
ENDBRANCH   1  13
TORSDOF 6
REMARK  Name = ../refined-set-2016/3iue/3iue_pocket.pdb
REMARK  215 active torsions:
REMARK  status: ('A' for Active; 'I' for Inactive)
REMARK    1  A    between atoms: _1  and  _3
REMARK    2  A    between atoms: _3  and  _4
REMARK    3  A    between atoms: _3  and  _6
REMARK    4  A    between atoms: _10  and  _11
REMARK    5  A    between atoms: _16  and  _18
REMARK    6  A    between atoms: _18  and  _19
REMARK    7  A    between atoms: _18  and  _21
REMARK    8  A    between atoms: _21  and  _22
REMARK    9  A    between atoms: _25  and  _27
REMARK   10  A    between atoms: _27  and  _28
REMARK   11  A    between atoms: _27  and  _30
REMARK   12  A    between atoms: _30  and  _31
REMARK   13  A    between atoms: _31  and  _32
REMARK   14  A    between atoms: _34  and  _36
REMARK   15  A    between atoms: _36  and  _37
REMARK   16  A    between atoms: _39  and  _41
REMARK   17  A    between atoms: _41  and  _42
REMARK   18  A    between atoms: _45  and  _47
REMARK   19  A    between atoms: _47  and  _48
REMARK   20  A    between atoms: _47  and  _50
REMARK   21  A    between atoms: _50  and  _51
REMARK   22  A    between atoms: _54  and  _56
REMARK   23  A    between atoms: _56  and  _57
REMARK   24  A    between atoms: _56  and  _59
REMARK   25  A    between atoms: _59  and  _60
REMARK   26  A    between atoms: _65  and  _67
REMARK   27  A    between atoms: _67  and  _68
REMARK   28  A    between atoms: _67  and  _70
REMARK   29  A    between atoms: _70  and  _71
REMARK   30  A    between atoms: _71  and  _72
REMARK   31  A    between atoms: _75  and  _77
REMARK   32  A    between atoms: _77  and  _78
REMARK   33  A    between atoms: _80  and  _82
REMARK   34  A    between atoms: _82  and  _83
REMARK   35  A    between atoms: _82  and  _85
REMARK   36  A    between atoms: _85  and  _86
REMARK   37  A    between atoms: _91  and  _93
REMARK   38  A    between atoms: _93  and  _94
REMARK   39  A    between atoms: _93  and  _96
REMARK   40  A    between atoms: _96  and  _97
REMARK   41  A    between atoms: _100  and  _102
REMARK   42  A    between atoms: _102  and  _103
REMARK   43  A    between atoms: _106  and  _108
REMARK   44  A    between atoms: _108  and  _109
REMARK   45  A    between atoms: _108  and  _111
REMARK   46  A    between atoms: _111  and  _112
REMARK   47  A    between atoms: _115  and  _117
REMARK   48  A    between atoms: _117  and  _118
REMARK   49  A    between atoms: _117  and  _120
REMARK   50  A    between atoms: _123  and  _125
REMARK   51  A    between atoms: _125  and  _126
REMARK   52  A    between atoms: _125  and  _128
REMARK   53  A    between atoms: _128  and  _129
REMARK   54  A    between atoms: _131  and  _133
REMARK   55  A    between atoms: _133  and  _134
REMARK   56  A    between atoms: _133  and  _136
REMARK   57  A    between atoms: _136  and  _137
REMARK   58  A    between atoms: _140  and  _142
REMARK   59  A    between atoms: _142  and  _143
REMARK   60  A    between atoms: _142  and  _145
REMARK   61  A    between atoms: _145  and  _146
REMARK   62  A    between atoms: _152  and  _154
REMARK   63  A    between atoms: _154  and  _155
REMARK   64  A    between atoms: _154  and  _157
REMARK   65  A    between atoms: _157  and  _158
REMARK   66  A    between atoms: _163  and  _165
REMARK   67  A    between atoms: _165  and  _166
REMARK   68  A    between atoms: _165  and  _168
REMARK   69  A    between atoms: _168  and  _169
REMARK   70  A    between atoms: _169  and  _170
REMARK   71  A    between atoms: _175  and  _177
REMARK   72  A    between atoms: _177  and  _178
REMARK   73  A    between atoms: _177  and  _180
REMARK   74  A    between atoms: _180  and  _181
REMARK   75  A    between atoms: _187  and  _189
REMARK   76  A    between atoms: _189  and  _190
REMARK   77  A    between atoms: _189  and  _192
REMARK   78  A    between atoms: _192  and  _193
REMARK   79  A    between atoms: _198  and  _199
REMARK   80  A    between atoms: _202  and  _203
REMARK   81  A    between atoms: _208  and  _210
REMARK   82  A    between atoms: _210  and  _211
REMARK   83  A    between atoms: _210  and  _213
REMARK   84  A    between atoms: _213  and  _214
REMARK   85  A    between atoms: _214  and  _215
REMARK   86  A    between atoms: _218  and  _220
REMARK   87  A    between atoms: _220  and  _221
REMARK   88  A    between atoms: _220  and  _223
REMARK   89  A    between atoms: _223  and  _224
REMARK   90  A    between atoms: _229  and  _231
REMARK   91  A    between atoms: _231  and  _232
REMARK   92  A    between atoms: _231  and  _234
REMARK   93  A    between atoms: _234  and  _235
REMARK   94  A    between atoms: _241  and  _243
REMARK   95  A    between atoms: _243  and  _244
REMARK   96  A    between atoms: _243  and  _246
REMARK   97  A    between atoms: _249  and  _251
REMARK   98  A    between atoms: _251  and  _252
REMARK   99  A    between atoms: _251  and  _254
REMARK  100  A    between atoms: _257  and  _259
REMARK  101  A    between atoms: _259  and  _260
REMARK  102  A    between atoms: _259  and  _262
REMARK  103  A    between atoms: _262  and  _263
REMARK  104  A    between atoms: _269  and  _271
REMARK  105  A    between atoms: _271  and  _272
REMARK  106  A    between atoms: _271  and  _274
REMARK  107  A    between atoms: _274  and  _275
REMARK  108  A    between atoms: _281  and  _283
REMARK  109  A    between atoms: _283  and  _284
REMARK  110  A    between atoms: _286  and  _288
REMARK  111  A    between atoms: _288  and  _289
REMARK  112  A    between atoms: _288  and  _291
REMARK  113  A    between atoms: _291  and  _292
REMARK  114  A    between atoms: _292  and  _293
REMARK  115  A    between atoms: _296  and  _298
REMARK  116  A    between atoms: _298  and  _299
REMARK  117  A    between atoms: _298  and  _301
REMARK  118  A    between atoms: _301  and  _302
REMARK  119  A    between atoms: _302  and  _303
REMARK  120  A    between atoms: _303  and  _304
REMARK  121  A    between atoms: _304  and  _305
REMARK  122  A    between atoms: _309  and  _311
REMARK  123  A    between atoms: _311  and  _312
REMARK  124  A    between atoms: _311  and  _314
REMARK  125  A    between atoms: _314  and  _315
REMARK  126  A    between atoms: _318  and  _320
REMARK  127  A    between atoms: _320  and  _321
REMARK  128  A    between atoms: _320  and  _323
REMARK  129  A    between atoms: _323  and  _324
REMARK  130  A    between atoms: _329  and  _330
REMARK  131  A    between atoms: _332  and  _334
REMARK  132  A    between atoms: _334  and  _335
REMARK  133  A    between atoms: _334  and  _337
REMARK  134  A    between atoms: _337  and  _338
REMARK  135  A    between atoms: _338  and  _339
REMARK  136  A    between atoms: _344  and  _346
REMARK  137  A    between atoms: _346  and  _347
REMARK  138  A    between atoms: _346  and  _349
REMARK  139  A    between atoms: _349  and  _350
REMARK  140  A    between atoms: _353  and  _355
REMARK  141  A    between atoms: _355  and  _356
REMARK  142  A    between atoms: _355  and  _358
REMARK  143  A    between atoms: _358  and  _359
REMARK  144  A    between atoms: _362  and  _364
REMARK  145  A    between atoms: _364  and  _365
REMARK  146  A    between atoms: _367  and  _369
REMARK  147  A    between atoms: _369  and  _370
REMARK  148  A    between atoms: _369  and  _372
REMARK  149  A    between atoms: _376  and  _377
REMARK  150  A    between atoms: _382  and  _384
REMARK  151  A    between atoms: _384  and  _385
REMARK  152  A    between atoms: _384  and  _387
REMARK  153  A    between atoms: _387  and  _388
REMARK  154  A    between atoms: _391  and  _393
REMARK  155  A    between atoms: _393  and  _394
REMARK  156  A    between atoms: _393  and  _396
REMARK  157  A    between atoms: _399  and  _401
REMARK  158  A    between atoms: _401  and  _402
REMARK  159  A    between atoms: _401  and  _404
REMARK  160  A    between atoms: _404  and  _405
REMARK  161  A    between atoms: _405  and  _406
REMARK  162  A    between atoms: _406  and  _407
REMARK  163  A    between atoms: _416  and  _418
REMARK  164  A    between atoms: _418  and  _419
REMARK  165  A    between atoms: _418  and  _421
REMARK  166  A    between atoms: _421  and  _422
REMARK  167  A    between atoms: _425  and  _427
REMARK  168  A    between atoms: _427  and  _428
REMARK  169  A    between atoms: _431  and  _433
REMARK  170  A    between atoms: _433  and  _434
REMARK  171  A    between atoms: _433  and  _436
REMARK  172  A    between atoms: _436  and  _437
REMARK  173  A    between atoms: _437  and  _438
REMARK  174  A    between atoms: _440  and  _442
REMARK  175  A    between atoms: _442  and  _443
REMARK  176  A    between atoms: _442  and  _445
REMARK  177  A    between atoms: _445  and  _446
REMARK  178  A    between atoms: _448  and  _450
REMARK  179  A    between atoms: _450  and  _451
REMARK  180  A    between atoms: _450  and  _453
REMARK  181  A    between atoms: _453  and  _454
REMARK  182  A    between atoms: _456  and  _458
REMARK  183  A    between atoms: _458  and  _459
REMARK  184  A    between atoms: _458  and  _461
REMARK  185  A    between atoms: _461  and  _462
REMARK  186  A    between atoms: _462  and  _463
REMARK  187  A    between atoms: _463  and  _464
REMARK  188  A    between atoms: _473  and  _475
REMARK  189  A    between atoms: _475  and  _476
REMARK  190  A    between atoms: _475  and  _478
REMARK  191  A    between atoms: _478  and  _479
REMARK  192  A    between atoms: _484  and  _486
REMARK  193  A    between atoms: _486  and  _487
REMARK  194  A    between atoms: _486  and  _489
REMARK  195  A    between atoms: _489  and  _490
REMARK  196  A    between atoms: _490  and  _491
REMARK  197  A    between atoms: _491  and  _492
REMARK  198  A    between atoms: _501  and  _503
REMARK  199  A    between atoms: _503  and  _504
REMARK  200  A    between atoms: _503  and  _506
REMARK  201  A    between atoms: _506  and  _507
REMARK  202  A    between atoms: _507  and  _508
REMARK  203  A    between atoms: _508  and  _509
REMARK  204  A    between atoms: _518  and  _520
REMARK  205  A    between atoms: _520  and  _521
REMARK  206  A    between atoms: _520  and  _523
REMARK  207  A    between atoms: _523  and  _524
REMARK  208  A    between atoms: _527  and  _529
REMARK  209  A    between atoms: _529  and  _530
REMARK  210  A    between atoms: _529  and  _532
REMARK  211  A    between atoms: _532  and  _533
REMARK  212  A    between atoms: _536  and  _538
REMARK  213  A    between atoms: _538  and  _539
REMARK  214  A    between atoms: _538  and  _541
REMARK  215  A    between atoms: _541  and  _542
REMARK                            x       y       z     vdW  Elec       q    Type
REMARK                         _______ _______ _______ _____ _____    ______ ____
ROOT
ATOM      1  CA  GLU A   1      24.640  -0.583   4.195  0.00  0.00    +0.134 C 
ENDROOT
BRANCH   1   2
ATOM      2  N   GLU A   1      24.309  -1.861   3.551  0.00  0.00    -0.239 NA
ATOM      3  H   GLU A   1      23.361  -1.997   3.146  0.00  0.00    +0.142 HD
ENDBRANCH   1   2
BRANCH   1   4
ATOM      4  C   GLU A   1      24.972  -0.753   5.687  0.00  0.00    +0.224 C 
ATOM      5  O   GLU A   1      25.773  -0.006   6.239  0.00  0.00    -0.287 OA
ENDBRANCH   1   4
BRANCH   1   6
ATOM      6  CB  GLU A   1      23.464   0.399   4.072  0.00  0.00    +0.037 C 
BRANCH   6   7
ATOM      7  CG  GLU A   1      23.270   0.931   2.669  0.00  0.00    +0.116 C 
BRANCH   7   8
ATOM      8  CD  GLU A   1      24.520   1.574   2.119  0.00  0.00    +0.365 C 
ATOM      9  OE2 GLU A   1      24.893   2.671   2.594  0.00  0.00    -0.246 OA
ATOM     10  OE1 GLU A   1      25.132   0.988   1.200  0.00  0.00    -0.246 OA
ENDBRANCH   7   8
ENDBRANCH   6   7
ENDBRANCH   1   6
TORSDOF 5
REMARK  Name = ../refined-set-2016/3iue/3iue_pocket.pdb
REMARK  215 active torsions:
REMARK  status: ('A' for Active; 'I' for Inactive)
REMARK    1  A    between atoms: _1  and  _3
REMARK    2  A    between atoms: _3  and  _4
REMARK    3  A    between atoms: _3  and  _6
REMARK    4  A    between atoms: _10  and  _11
REMARK    5  A    between atoms: _16  and  _18
REMARK    6  A    between atoms: _18  and  _19
REMARK    7  A    between atoms: _18  and  _21
REMARK    8  A    between atoms: _21  and  _22
REMARK    9  A    between atoms: _25  and  _27
REMARK   10  A    between atoms: _27  and  _28
REMARK   11  A    between atoms: _27  and  _30
REMARK   12  A    between atoms: _30  and  _31
REMARK   13  A    between atoms: _31  and  _32
REMARK   14  A    between atoms: _34  and  _36
REMARK   15  A    between atoms: _36  and  _37
REMARK   16  A    between atoms: _39  and  _41
REMARK   17  A    between atoms: _41  and  _42
REMARK   18  A    between atoms: _45  and  _47
REMARK   19  A    between atoms: _47  and  _48
REMARK   20  A    between atoms: _47  and  _50
REMARK   21  A    between atoms: _50  and  _51
REMARK   22  A    between atoms: _54  and  _56
REMARK   23  A    between atoms: _56  and  _57
REMARK   24  A    between atoms: _56  and  _59
REMARK   25  A    between atoms: _59  and  _60
REMARK   26  A    between atoms: _65  and  _67
REMARK   27  A    between atoms: _67  and  _68
REMARK   28  A    between atoms: _67  and  _70
REMARK   29  A    between atoms: _70  and  _71
REMARK   30  A    between atoms: _71  and  _72
REMARK   31  A    between atoms: _75  and  _77
REMARK   32  A    between atoms: _77  and  _78
REMARK   33  A    between atoms: _80  and  _82
REMARK   34  A    between atoms: _82  and  _83
REMARK   35  A    between atoms: _82  and  _85
REMARK   36  A    between atoms: _85  and  _86
REMARK   37  A    between atoms: _91  and  _93
REMARK   38  A    between atoms: _93  and  _94
REMARK   39  A    between atoms: _93  and  _96
REMARK   40  A    between atoms: _96  and  _97
REMARK   41  A    between atoms: _100  and  _102
REMARK   42  A    between atoms: _102  and  _103
REMARK   43  A    between atoms: _106  and  _108
REMARK   44  A    between atoms: _108  and  _109
REMARK   45  A    between atoms: _108  and  _111
REMARK   46  A    between atoms: _111  and  _112
REMARK   47  A    between atoms: _115  and  _117
REMARK   48  A    between atoms: _117  and  _118
REMARK   49  A    between atoms: _117  and  _120
REMARK   50  A    between atoms: _123  and  _125
REMARK   51  A    between atoms: _125  and  _126
REMARK   52  A    between atoms: _125  and  _128
REMARK   53  A    between atoms: _128  and  _129
REMARK   54  A    between atoms: _131  and  _133
REMARK   55  A    between atoms: _133  and  _134
REMARK   56  A    between atoms: _133  and  _136
REMARK   57  A    between atoms: _136  and  _137
REMARK   58  A    between atoms: _140  and  _142
REMARK   59  A    between atoms: _142  and  _143
REMARK   60  A    between atoms: _142  and  _145
REMARK   61  A    between atoms: _145  and  _146
REMARK   62  A    between atoms: _152  and  _154
REMARK   63  A    between atoms: _154  and  _155
REMARK   64  A    between atoms: _154  and  _157
REMARK   65  A    between atoms: _157  and  _158
REMARK   66  A    between atoms: _163  and  _165
REMARK   67  A    between atoms: _165  and  _166
REMARK   68  A    between atoms: _165  and  _168
REMARK   69  A    between atoms: _168  and  _169
REMARK   70  A    between atoms: _169  and  _170
REMARK   71  A    between atoms: _175  and  _177
REMARK   72  A    between atoms: _177  and  _178
REMARK   73  A    between atoms: _177  and  _180
REMARK   74  A    between atoms: _180  and  _181
REMARK   75  A    between atoms: _187  and  _189
REMARK   76  A    between atoms: _189  and  _190
REMARK   77  A    between atoms: _189  and  _192
REMARK   78  A    between atoms: _192  and  _193
REMARK   79  A    between atoms: _198  and  _199
REMARK   80  A    between atoms: _202  and  _203
REMARK   81  A    between atoms: _208  and  _210
REMARK   82  A    between atoms: _210  and  _211
REMARK   83  A    between atoms: _210  and  _213
REMARK   84  A    between atoms: _213  and  _214
REMARK   85  A    between atoms: _214  and  _215
REMARK   86  A    between atoms: _218  and  _220
REMARK   87  A    between atoms: _220  and  _221
REMARK   88  A    between atoms: _220  and  _223
REMARK   89  A    between atoms: _223  and  _224
REMARK   90  A    between atoms: _229  and  _231
REMARK   91  A    between atoms: _231  and  _232
REMARK   92  A    between atoms: _231  and  _234
REMARK   93  A    between atoms: _234  and  _235
REMARK   94  A    between atoms: _241  and  _243
REMARK   95  A    between atoms: _243  and  _244
REMARK   96  A    between atoms: _243  and  _246
REMARK   97  A    between atoms: _249  and  _251
REMARK   98  A    between atoms: _251  and  _252
REMARK   99  A    between atoms: _251  and  _254
REMARK  100  A    between atoms: _257  and  _259
REMARK  101  A    between atoms: _259  and  _260
REMARK  102  A    between atoms: _259  and  _262
REMARK  103  A    between atoms: _262  and  _263
REMARK  104  A    between atoms: _269  and  _271
REMARK  105  A    between atoms: _271  and  _272
REMARK  106  A    between atoms: _271  and  _274
REMARK  107  A    between atoms: _274  and  _275
REMARK  108  A    between atoms: _281  and  _283
REMARK  109  A    between atoms: _283  and  _284
REMARK  110  A    between atoms: _286  and  _288
REMARK  111  A    between atoms: _288  and  _289
REMARK  112  A    between atoms: _288  and  _291
REMARK  113  A    between atoms: _291  and  _292
REMARK  114  A    between atoms: _292  and  _293
REMARK  115  A    between atoms: _296  and  _298
REMARK  116  A    between atoms: _298  and  _299
REMARK  117  A    between atoms: _298  and  _301
REMARK  118  A    between atoms: _301  and  _302
REMARK  119  A    between atoms: _302  and  _303
REMARK  120  A    between atoms: _303  and  _304
REMARK  121  A    between atoms: _304  and  _305
REMARK  122  A    between atoms: _309  and  _311
REMARK  123  A    between atoms: _311  and  _312
REMARK  124  A    between atoms: _311  and  _314
REMARK  125  A    between atoms: _314  and  _315
REMARK  126  A    between atoms: _318  and  _320
REMARK  127  A    between atoms: _320  and  _321
REMARK  128  A    between atoms: _320  and  _323
REMARK  129  A    between atoms: _323  and  _324
REMARK  130  A    between atoms: _329  and  _330
REMARK  131  A    between atoms: _332  and  _334
REMARK  132  A    between atoms: _334  and  _335
REMARK  133  A    between atoms: _334  and  _337
REMARK  134  A    between atoms: _337  and  _338
REMARK  135  A    between atoms: _338  and  _339
REMARK  136  A    between atoms: _344  and  _346
REMARK  137  A    between atoms: _346  and  _347
REMARK  138  A    between atoms: _346  and  _349
REMARK  139  A    between atoms: _349  and  _350
REMARK  140  A    between atoms: _353  and  _355
REMARK  141  A    between atoms: _355  and  _356
REMARK  142  A    between atoms: _355  and  _358
REMARK  143  A    between atoms: _358  and  _359
REMARK  144  A    between atoms: _362  and  _364
REMARK  145  A    between atoms: _364  and  _365
REMARK  146  A    between atoms: _367  and  _369
REMARK  147  A    between atoms: _369  and  _370
REMARK  148  A    between atoms: _369  and  _372
REMARK  149  A    between atoms: _376  and  _377
REMARK  150  A    between atoms: _382  and  _384
REMARK  151  A    between atoms: _384  and  _385
REMARK  152  A    between atoms: _384  and  _387
REMARK  153  A    between atoms: _387  and  _388
REMARK  154  A    between atoms: _391  and  _393
REMARK  155  A    between atoms: _393  and  _394
REMARK  156  A    between atoms: _393  and  _396
REMARK  157  A    between atoms: _399  and  _401
REMARK  158  A    between atoms: _401  and  _402
REMARK  159  A    between atoms: _401  and  _404
REMARK  160  A    between atoms: _404  and  _405
REMARK  161  A    between atoms: _405  and  _406
REMARK  162  A    between atoms: _406  and  _407
REMARK  163  A    between atoms: _416  and  _418
REMARK  164  A    between atoms: _418  and  _419
REMARK  165  A    between atoms: _418  and  _421
REMARK  166  A    between atoms: _421  and  _422
REMARK  167  A    between atoms: _425  and  _427
REMARK  168  A    between atoms: _427  and  _428
REMARK  169  A    between atoms: _431  and  _433
REMARK  170  A    between atoms: _433  and  _434
REMARK  171  A    between atoms: _433  and  _436
REMARK  172  A    between atoms: _436  and  _437
REMARK  173  A    between atoms: _437  and  _438
REMARK  174  A    between atoms: _440  and  _442
REMARK  175  A    between atoms: _442  and  _443
REMARK  176  A    between atoms: _442  and  _445
REMARK  177  A    between atoms: _445  and  _446
REMARK  178  A    between atoms: _448  and  _450
REMARK  179  A    between atoms: _450  and  _451
REMARK  180  A    between atoms: _450  and  _453
REMARK  181  A    between atoms: _453  and  _454
REMARK  182  A    between atoms: _456  and  _458
REMARK  183  A    between atoms: _458  and  _459
REMARK  184  A    between atoms: _458  and  _461
REMARK  185  A    between atoms: _461  and  _462
REMARK  186  A    between atoms: _462  and  _463
REMARK  187  A    between atoms: _463  and  _464
REMARK  188  A    between atoms: _473  and  _475
REMARK  189  A    between atoms: _475  and  _476
REMARK  190  A    between atoms: _475  and  _478
REMARK  191  A    between atoms: _478  and  _479
REMARK  192  A    between atoms: _484  and  _486
REMARK  193  A    between atoms: _486  and  _487
REMARK  194  A    between atoms: _486  and  _489
REMARK  195  A    between atoms: _489  and  _490
REMARK  196  A    between atoms: _490  and  _491
REMARK  197  A    between atoms: _491  and  _492
REMARK  198  A    between atoms: _501  and  _503
REMARK  199  A    between atoms: _503  and  _504
REMARK  200  A    between atoms: _503  and  _506
REMARK  201  A    between atoms: _506  and  _507
REMARK  202  A    between atoms: _507  and  _508
REMARK  203  A    between atoms: _508  and  _509
REMARK  204  A    between atoms: _518  and  _520
REMARK  205  A    between atoms: _520  and  _521
REMARK  206  A    between atoms: _520  and  _523
REMARK  207  A    between atoms: _523  and  _524
REMARK  208  A    between atoms: _527  and  _529
REMARK  209  A    between atoms: _529  and  _530
REMARK  210  A    between atoms: _529  and  _532
REMARK  211  A    between atoms: _532  and  _533
REMARK  212  A    between atoms: _536  and  _538
REMARK  213  A    between atoms: _538  and  _539
REMARK  214  A    between atoms: _538  and  _541
REMARK  215  A    between atoms: _541  and  _542
REMARK                            x       y       z     vdW  Elec       q    Type
REMARK                         _______ _______ _______ _____ _____    ______ ____
ROOT
ATOM      1  C   HIS A   1      21.201   2.465  11.557  0.00  0.00    +0.239 C 
ATOM      2  O   HIS A   1      20.390   3.370  11.747  0.00  0.00    -0.274 OA
ATOM      3  N   PHE A   2      20.829   1.237  11.210  0.00  0.00    -0.298 N 
ATOM      4  H   PHE A   2      21.534   0.480  11.099  0.00  0.00    +0.150 HD
ENDROOT
BRANCH   1   5
ATOM      5  CA  HIS A   1      22.708   2.716  11.679  0.00  0.00    +0.151 C 
BRANCH   5   6
ATOM      6  N   HIS A   1      23.347   1.731  12.557  0.00  0.00    -0.238 NA
ATOM      7  H   HIS A   1      24.115   1.138  12.184  0.00  0.00    +0.142 HD
ENDBRANCH   5   6
BRANCH   5   8
ATOM      8  CB  HIS A   1      23.346   2.703  10.270  0.00  0.00    +0.074 C 
BRANCH   8   9
ATOM      9  CG  HIS A   1      22.582   3.513   9.262  0.00  0.00    +0.082 A 
ATOM     10  ND1 HIS A   1      22.606   4.891   9.247  0.00  0.00    -0.227 NA
ATOM     11  CE1 HIS A   1      21.823   5.335   8.279  0.00  0.00    +0.199 A 
ATOM     12  NE2 HIS A   1      21.278   4.297   7.674  0.00  0.00    -0.221 NA
ATOM     13  CD2 HIS A   1      21.738   3.143   8.265  0.00  0.00    +0.115 A 
ENDBRANCH   8   9
ENDBRANCH   5   8
ENDBRANCH   1   5
BRANCH   3  14
ATOM     14  CA  PHE A   2      19.400   0.970  10.986  0.00  0.00    +0.141 C 
BRANCH  14  15
ATOM     15  C   PHE A   2      18.559   0.937  12.261  0.00  0.00    +0.227 C 
ATOM     16  O   PHE A   2      17.371   1.292  12.223  0.00  0.00    -0.286 OA
ENDBRANCH  14  15
BRANCH  14  17
ATOM     17  CB  PHE A   2      19.173  -0.265  10.138  0.00  0.00    +0.054 C 
BRANCH  17  18
ATOM     18  CG  PHE A   2      19.517  -0.049   8.685  0.00  0.00    -0.020 A 
ATOM     19  CD2 PHE A   2      20.557  -0.765   8.090  0.00  0.00    -0.004 A 
ATOM     20  CE2 PHE A   2      20.869  -0.571   6.731  0.00  0.00    -0.000 A 
ATOM     21  CZ  PHE A   2      20.150   0.363   5.971  0.00  0.00    -0.000 A 
ATOM     22  CE1 PHE A   2      19.105   1.090   6.550  0.00  0.00    -0.000 A 
ATOM     23  CD1 PHE A   2      18.795   0.870   7.922  0.00  0.00    -0.004 A 
ENDBRANCH  17  18
ENDBRANCH  14  17
ENDBRANCH   3  14
TORSDOF 8
REMARK  Name = ../refined-set-2016/3iue/3iue_pocket.pdb
REMARK  215 active torsions:
REMARK  status: ('A' for Active; 'I' for Inactive)
REMARK    1  A    between atoms: _1  and  _3
REMARK    2  A    between atoms: _3  and  _4
REMARK    3  A    between atoms: _3  and  _6
REMARK    4  A    between atoms: _10  and  _11
REMARK    5  A    between atoms: _16  and  _18
REMARK    6  A    between atoms: _18  and  _19
REMARK    7  A    between atoms: _18  and  _21
REMARK    8  A    between atoms: _21  and  _22
REMARK    9  A    between atoms: _25  and  _27
REMARK   10  A    between atoms: _27  and  _28
REMARK   11  A    between atoms: _27  and  _30
REMARK   12  A    between atoms: _30  and  _31
REMARK   13  A    between atoms: _31  and  _32
REMARK   14  A    between atoms: _34  and  _36
REMARK   15  A    between atoms: _36  and  _37
REMARK   16  A    between atoms: _39  and  _41
REMARK   17  A    between atoms: _41  and  _42
REMARK   18  A    between atoms: _45  and  _47
REMARK   19  A    between atoms: _47  and  _48
REMARK   20  A    between atoms: _47  and  _50
REMARK   21  A    between atoms: _50  and  _51
REMARK   22  A    between atoms: _54  and  _56
REMARK   23  A    between atoms: _56  and  _57
REMARK   24  A    between atoms: _56  and  _59
REMARK   25  A    between atoms: _59  and  _60
REMARK   26  A    between atoms: _65  and  _67
REMARK   27  A    between atoms: _67  and  _68
REMARK   28  A    between atoms: _67  and  _70
REMARK   29  A    between atoms: _70  and  _71
REMARK   30  A    between atoms: _71  and  _72
REMARK   31  A    between atoms: _75  and  _77
REMARK   32  A    between atoms: _77  and  _78
REMARK   33  A    between atoms: _80  and  _82
REMARK   34  A    between atoms: _82  and  _83
REMARK   35  A    between atoms: _82  and  _85
REMARK   36  A    between atoms: _85  and  _86
REMARK   37  A    between atoms: _91  and  _93
REMARK   38  A    between atoms: _93  and  _94
REMARK   39  A    between atoms: _93  and  _96
REMARK   40  A    between atoms: _96  and  _97
REMARK   41  A    between atoms: _100  and  _102
REMARK   42  A    between atoms: _102  and  _103
REMARK   43  A    between atoms: _106  and  _108
REMARK   44  A    between atoms: _108  and  _109
REMARK   45  A    between atoms: _108  and  _111
REMARK   46  A    between atoms: _111  and  _112
REMARK   47  A    between atoms: _115  and  _117
REMARK   48  A    between atoms: _117  and  _118
REMARK   49  A    between atoms: _117  and  _120
REMARK   50  A    between atoms: _123  and  _125
REMARK   51  A    between atoms: _125  and  _126
REMARK   52  A    between atoms: _125  and  _128
REMARK   53  A    between atoms: _128  and  _129
REMARK   54  A    between atoms: _131  and  _133
REMARK   55  A    between atoms: _133  and  _134
REMARK   56  A    between atoms: _133  and  _136
REMARK   57  A    between atoms: _136  and  _137
REMARK   58  A    between atoms: _140  and  _142
REMARK   59  A    between atoms: _142  and  _143
REMARK   60  A    between atoms: _142  and  _145
REMARK   61  A    between atoms: _145  and  _146
REMARK   62  A    between atoms: _152  and  _154
REMARK   63  A    between atoms: _154  and  _155
REMARK   64  A    between atoms: _154  and  _157
REMARK   65  A    between atoms: _157  and  _158
REMARK   66  A    between atoms: _163  and  _165
REMARK   67  A    between atoms: _165  and  _166
REMARK   68  A    between atoms: _165  and  _168
REMARK   69  A    between atoms: _168  and  _169
REMARK   70  A    between atoms: _169  and  _170
REMARK   71  A    between atoms: _175  and  _177
REMARK   72  A    between atoms: _177  and  _178
REMARK   73  A    between atoms: _177  and  _180
REMARK   74  A    between atoms: _180  and  _181
REMARK   75  A    between atoms: _187  and  _189
REMARK   76  A    between atoms: _189  and  _190
REMARK   77  A    between atoms: _189  and  _192
REMARK   78  A    between atoms: _192  and  _193
REMARK   79  A    between atoms: _198  and  _199
REMARK   80  A    between atoms: _202  and  _203
REMARK   81  A    between atoms: _208  and  _210
REMARK   82  A    between atoms: _210  and  _211
REMARK   83  A    between atoms: _210  and  _213
REMARK   84  A    between atoms: _213  and  _214
REMARK   85  A    between atoms: _214  and  _215
REMARK   86  A    between atoms: _218  and  _220
REMARK   87  A    between atoms: _220  and  _221
REMARK   88  A    between atoms: _220  and  _223
REMARK   89  A    between atoms: _223  and  _224
REMARK   90  A    between atoms: _229  and  _231
REMARK   91  A    between atoms: _231  and  _232
REMARK   92  A    between atoms: _231  and  _234
REMARK   93  A    between atoms: _234  and  _235
REMARK   94  A    between atoms: _241  and  _243
REMARK   95  A    between atoms: _243  and  _244
REMARK   96  A    between atoms: _243  and  _246
REMARK   97  A    between atoms: _249  and  _251
REMARK   98  A    between atoms: _251  and  _252
REMARK   99  A    between atoms: _251  and  _254
REMARK  100  A    between atoms: _257  and  _259
REMARK  101  A    between atoms: _259  and  _260
REMARK  102  A    between atoms: _259  and  _262
REMARK  103  A    between atoms: _262  and  _263
REMARK  104  A    between atoms: _269  and  _271
REMARK  105  A    between atoms: _271  and  _272
REMARK  106  A    between atoms: _271  and  _274
REMARK  107  A    between atoms: _274  and  _275
REMARK  108  A    between atoms: _281  and  _283
REMARK  109  A    between atoms: _283  and  _284
REMARK  110  A    between atoms: _286  and  _288
REMARK  111  A    between atoms: _288  and  _289
REMARK  112  A    between atoms: _288  and  _291
REMARK  113  A    between atoms: _291  and  _292
REMARK  114  A    between atoms: _292  and  _293
REMARK  115  A    between atoms: _296  and  _298
REMARK  116  A    between atoms: _298  and  _299
REMARK  117  A    between atoms: _298  and  _301
REMARK  118  A    between atoms: _301  and  _302
REMARK  119  A    between atoms: _302  and  _303
REMARK  120  A    between atoms: _303  and  _304
REMARK  121  A    between atoms: _304  and  _305
REMARK  122  A    between atoms: _309  and  _311
REMARK  123  A    between atoms: _311  and  _312
REMARK  124  A    between atoms: _311  and  _314
REMARK  125  A    between atoms: _314  and  _315
REMARK  126  A    between atoms: _318  and  _320
REMARK  127  A    between atoms: _320  and  _321
REMARK  128  A    between atoms: _320  and  _323
REMARK  129  A    between atoms: _323  and  _324
REMARK  130  A    between atoms: _329  and  _330
REMARK  131  A    between atoms: _332  and  _334
REMARK  132  A    between atoms: _334  and  _335
REMARK  133  A    between atoms: _334  and  _337
REMARK  134  A    between atoms: _337  and  _338
REMARK  135  A    between atoms: _338  and  _339
REMARK  136  A    between atoms: _344  and  _346
REMARK  137  A    between atoms: _346  and  _347
REMARK  138  A    between atoms: _346  and  _349
REMARK  139  A    between atoms: _349  and  _350
REMARK  140  A    between atoms: _353  and  _355
REMARK  141  A    between atoms: _355  and  _356
REMARK  142  A    between atoms: _355  and  _358
REMARK  143  A    between atoms: _358  and  _359
REMARK  144  A    between atoms: _362  and  _364
REMARK  145  A    between atoms: _364  and  _365
REMARK  146  A    between atoms: _367  and  _369
REMARK  147  A    between atoms: _369  and  _370
REMARK  148  A    between atoms: _369  and  _372
REMARK  149  A    between atoms: _376  and  _377
REMARK  150  A    between atoms: _382  and  _384
REMARK  151  A    between atoms: _384  and  _385
REMARK  152  A    between atoms: _384  and  _387
REMARK  153  A    between atoms: _387  and  _388
REMARK  154  A    between atoms: _391  and  _393
REMARK  155  A    between atoms: _393  and  _394
REMARK  156  A    between atoms: _393  and  _396
REMARK  157  A    between atoms: _399  and  _401
REMARK  158  A    between atoms: _401  and  _402
REMARK  159  A    between atoms: _401  and  _404
REMARK  160  A    between atoms: _404  and  _405
REMARK  161  A    between atoms: _405  and  _406
REMARK  162  A    between atoms: _406  and  _407
REMARK  163  A    between atoms: _416  and  _418
REMARK  164  A    between atoms: _418  and  _419
REMARK  165  A    between atoms: _418  and  _421
REMARK  166  A    between atoms: _421  and  _422
REMARK  167  A    between atoms: _425  and  _427
REMARK  168  A    between atoms: _427  and  _428
REMARK  169  A    between atoms: _431  and  _433
REMARK  170  A    between atoms: _433  and  _434
REMARK  171  A    between atoms: _433  and  _436
REMARK  172  A    between atoms: _436  and  _437
REMARK  173  A    between atoms: _437  and  _438
REMARK  174  A    between atoms: _440  and  _442
REMARK  175  A    between atoms: _442  and  _443
REMARK  176  A    between atoms: _442  and  _445
REMARK  177  A    between atoms: _445  and  _446
REMARK  178  A    between atoms: _448  and  _450
REMARK  179  A    between atoms: _450  and  _451
REMARK  180  A    between atoms: _450  and  _453
REMARK  181  A    between atoms: _453  and  _454
REMARK  182  A    between atoms: _456  and  _458
REMARK  183  A    between atoms: _458  and  _459
REMARK  184  A    between atoms: _458  and  _461
REMARK  185  A    between atoms: _461  and  _462
REMARK  186  A    between atoms: _462  and  _463
REMARK  187  A    between atoms: _463  and  _464
REMARK  188  A    between atoms: _473  and  _475
REMARK  189  A    between atoms: _475  and  _476
REMARK  190  A    between atoms: _475  and  _478
REMARK  191  A    between atoms: _478  and  _479
REMARK  192  A    between atoms: _484  and  _486
REMARK  193  A    between atoms: _486  and  _487
REMARK  194  A    between atoms: _486  and  _489
REMARK  195  A    between atoms: _489  and  _490
REMARK  196  A    between atoms: _490  and  _491
REMARK  197  A    between atoms: _491  and  _492
REMARK  198  A    between atoms: _501  and  _503
REMARK  199  A    between atoms: _503  and  _504
REMARK  200  A    between atoms: _503  and  _506
REMARK  201  A    between atoms: _506  and  _507
REMARK  202  A    between atoms: _507  and  _508
REMARK  203  A    between atoms: _508  and  _509
REMARK  204  A    between atoms: _518  and  _520
REMARK  205  A    between atoms: _520  and  _521
REMARK  206  A    between atoms: _520  and  _523
REMARK  207  A    between atoms: _523  and  _524
REMARK  208  A    between atoms: _527  and  _529
REMARK  209  A    between atoms: _529  and  _530
REMARK  210  A    between atoms: _529  and  _532
REMARK  211  A    between atoms: _532  and  _533
REMARK  212  A    between atoms: _536  and  _538
REMARK  213  A    between atoms: _538  and  _539
REMARK  214  A    between atoms: _538  and  _541
REMARK  215  A    between atoms: _541  and  _542
REMARK                            x       y       z     vdW  Elec       q    Type
REMARK                         _______ _______ _______ _____ _____    ______ ____
ROOT
ATOM      1  CA  VAL A   1      16.611   4.841  11.568  0.00  0.00    +0.133 C 
ENDROOT
BRANCH   1   2
ATOM      2  CB  VAL A   1      16.934   4.225  10.196  0.00  0.00    +0.023 C 
ATOM      3  CG2 VAL A   1      18.216   4.853   9.552  0.00  0.00    +0.002 C 
ATOM      4  CG1 VAL A   1      15.714   4.385   9.268  0.00  0.00    +0.002 C 
ENDBRANCH   1   2
BRANCH   1   5
ATOM      5  N   VAL A   1      17.656   4.485  12.533  0.00  0.00    -0.239 NA
ATOM      6  H   VAL A   1      18.421   3.841  12.247  0.00  0.00    +0.142 HD
ENDBRANCH   1   5
BRANCH   1   7
ATOM      7  C   VAL A   1      15.251   4.314  12.054  0.00  0.00    +0.224 C 
ATOM      8  O   VAL A   1      14.275   5.047  12.104  0.00  0.00    -0.287 OA
ENDBRANCH   1   7
TORSDOF 3
REMARK  Name = ../refined-set-2016/3iue/3iue_pocket.pdb
REMARK  215 active torsions:
REMARK  status: ('A' for Active; 'I' for Inactive)
REMARK    1  A    between atoms: _1  and  _3
REMARK    2  A    between atoms: _3  and  _4
REMARK    3  A    between atoms: _3  and  _6
REMARK    4  A    between atoms: _10  and  _11
REMARK    5  A    between atoms: _16  and  _18
REMARK    6  A    between atoms: _18  and  _19
REMARK    7  A    between atoms: _18  and  _21
REMARK    8  A    between atoms: _21  and  _22
REMARK    9  A    between atoms: _25  and  _27
REMARK   10  A    between atoms: _27  and  _28
REMARK   11  A    between atoms: _27  and  _30
REMARK   12  A    between atoms: _30  and  _31
REMARK   13  A    between atoms: _31  and  _32
REMARK   14  A    between atoms: _34  and  _36
REMARK   15  A    between atoms: _36  and  _37
REMARK   16  A    between atoms: _39  and  _41
REMARK   17  A    between atoms: _41  and  _42
REMARK   18  A    between atoms: _45  and  _47
REMARK   19  A    between atoms: _47  and  _48
REMARK   20  A    between atoms: _47  and  _50
REMARK   21  A    between atoms: _50  and  _51
REMARK   22  A    between atoms: _54  and  _56
REMARK   23  A    between atoms: _56  and  _57
REMARK   24  A    between atoms: _56  and  _59
REMARK   25  A    between atoms: _59  and  _60
REMARK   26  A    between atoms: _65  and  _67
REMARK   27  A    between atoms: _67  and  _68
REMARK   28  A    between atoms: _67  and  _70
REMARK   29  A    between atoms: _70  and  _71
REMARK   30  A    between atoms: _71  and  _72
REMARK   31  A    between atoms: _75  and  _77
REMARK   32  A    between atoms: _77  and  _78
REMARK   33  A    between atoms: _80  and  _82
REMARK   34  A    between atoms: _82  and  _83
REMARK   35  A    between atoms: _82  and  _85
REMARK   36  A    between atoms: _85  and  _86
REMARK   37  A    between atoms: _91  and  _93
REMARK   38  A    between atoms: _93  and  _94
REMARK   39  A    between atoms: _93  and  _96
REMARK   40  A    between atoms: _96  and  _97
REMARK   41  A    between atoms: _100  and  _102
REMARK   42  A    between atoms: _102  and  _103
REMARK   43  A    between atoms: _106  and  _108
REMARK   44  A    between atoms: _108  and  _109
REMARK   45  A    between atoms: _108  and  _111
REMARK   46  A    between atoms: _111  and  _112
REMARK   47  A    between atoms: _115  and  _117
REMARK   48  A    between atoms: _117  and  _118
REMARK   49  A    between atoms: _117  and  _120
REMARK   50  A    between atoms: _123  and  _125
REMARK   51  A    between atoms: _125  and  _126
REMARK   52  A    between atoms: _125  and  _128
REMARK   53  A    between atoms: _128  and  _129
REMARK   54  A    between atoms: _131  and  _133
REMARK   55  A    between atoms: _133  and  _134
REMARK   56  A    between atoms: _133  and  _136
REMARK   57  A    between atoms: _136  and  _137
REMARK   58  A    between atoms: _140  and  _142
REMARK   59  A    between atoms: _142  and  _143
REMARK   60  A    between atoms: _142  and  _145
REMARK   61  A    between atoms: _145  and  _146
REMARK   62  A    between atoms: _152  and  _154
REMARK   63  A    between atoms: _154  and  _155
REMARK   64  A    between atoms: _154  and  _157
REMARK   65  A    between atoms: _157  and  _158
REMARK   66  A    between atoms: _163  and  _165
REMARK   67  A    between atoms: _165  and  _166
REMARK   68  A    between atoms: _165  and  _168
REMARK   69  A    between atoms: _168  and  _169
REMARK   70  A    between atoms: _169  and  _170
REMARK   71  A    between atoms: _175  and  _177
REMARK   72  A    between atoms: _177  and  _178
REMARK   73  A    between atoms: _177  and  _180
REMARK   74  A    between atoms: _180  and  _181
REMARK   75  A    between atoms: _187  and  _189
REMARK   76  A    between atoms: _189  and  _190
REMARK   77  A    between atoms: _189  and  _192
REMARK   78  A    between atoms: _192  and  _193
REMARK   79  A    between atoms: _198  and  _199
REMARK   80  A    between atoms: _202  and  _203
REMARK   81  A    between atoms: _208  and  _210
REMARK   82  A    between atoms: _210  and  _211
REMARK   83  A    between atoms: _210  and  _213
REMARK   84  A    between atoms: _213  and  _214
REMARK   85  A    between atoms: _214  and  _215
REMARK   86  A    between atoms: _218  and  _220
REMARK   87  A    between atoms: _220  and  _221
REMARK   88  A    between atoms: _220  and  _223
REMARK   89  A    between atoms: _223  and  _224
REMARK   90  A    between atoms: _229  and  _231
REMARK   91  A    between atoms: _231  and  _232
REMARK   92  A    between atoms: _231  and  _234
REMARK   93  A    between atoms: _234  and  _235
REMARK   94  A    between atoms: _241  and  _243
REMARK   95  A    between atoms: _243  and  _244
REMARK   96  A    between atoms: _243  and  _246
REMARK   97  A    between atoms: _249  and  _251
REMARK   98  A    between atoms: _251  and  _252
REMARK   99  A    between atoms: _251  and  _254
REMARK  100  A    between atoms: _257  and  _259
REMARK  101  A    between atoms: _259  and  _260
REMARK  102  A    between atoms: _259  and  _262
REMARK  103  A    between atoms: _262  and  _263
REMARK  104  A    between atoms: _269  and  _271
REMARK  105  A    between atoms: _271  and  _272
REMARK  106  A    between atoms: _271  and  _274
REMARK  107  A    between atoms: _274  and  _275
REMARK  108  A    between atoms: _281  and  _283
REMARK  109  A    between atoms: _283  and  _284
REMARK  110  A    between atoms: _286  and  _288
REMARK  111  A    between atoms: _288  and  _289
REMARK  112  A    between atoms: _288  and  _291
REMARK  113  A    between atoms: _291  and  _292
REMARK  114  A    between atoms: _292  and  _293
REMARK  115  A    between atoms: _296  and  _298
REMARK  116  A    between atoms: _298  and  _299
REMARK  117  A    between atoms: _298  and  _301
REMARK  118  A    between atoms: _301  and  _302
REMARK  119  A    between atoms: _302  and  _303
REMARK  120  A    between atoms: _303  and  _304
REMARK  121  A    between atoms: _304  and  _305
REMARK  122  A    between atoms: _309  and  _311
REMARK  123  A    between atoms: _311  and  _312
REMARK  124  A    between atoms: _311  and  _314
REMARK  125  A    between atoms: _314  and  _315
REMARK  126  A    between atoms: _318  and  _320
REMARK  127  A    between atoms: _320  and  _321
REMARK  128  A    between atoms: _320  and  _323
REMARK  129  A    between atoms: _323  and  _324
REMARK  130  A    between atoms: _329  and  _330
REMARK  131  A    between atoms: _332  and  _334
REMARK  132  A    between atoms: _334  and  _335
REMARK  133  A    between atoms: _334  and  _337
REMARK  134  A    between atoms: _337  and  _338
REMARK  135  A    between atoms: _338  and  _339
REMARK  136  A    between atoms: _344  and  _346
REMARK  137  A    between atoms: _346  and  _347
REMARK  138  A    between atoms: _346  and  _349
REMARK  139  A    between atoms: _349  and  _350
REMARK  140  A    between atoms: _353  and  _355
REMARK  141  A    between atoms: _355  and  _356
REMARK  142  A    between atoms: _355  and  _358
REMARK  143  A    between atoms: _358  and  _359
REMARK  144  A    between atoms: _362  and  _364
REMARK  145  A    between atoms: _364  and  _365
REMARK  146  A    between atoms: _367  and  _369
REMARK  147  A    between atoms: _369  and  _370
REMARK  148  A    between atoms: _369  and  _372
REMARK  149  A    between atoms: _376  and  _377
REMARK  150  A    between atoms: _382  and  _384
REMARK  151  A    between atoms: _384  and  _385
REMARK  152  A    between atoms: _384  and  _387
REMARK  153  A    between atoms: _387  and  _388
REMARK  154  A    between atoms: _391  and  _393
REMARK  155  A    between atoms: _393  and  _394
REMARK  156  A    between atoms: _393  and  _396
REMARK  157  A    between atoms: _399  and  _401
REMARK  158  A    between atoms: _401  and  _402
REMARK  159  A    between atoms: _401  and  _404
REMARK  160  A    between atoms: _404  and  _405
REMARK  161  A    between atoms: _405  and  _406
REMARK  162  A    between atoms: _406  and  _407
REMARK  163  A    between atoms: _416  and  _418
REMARK  164  A    between atoms: _418  and  _419
REMARK  165  A    between atoms: _418  and  _421
REMARK  166  A    between atoms: _421  and  _422
REMARK  167  A    between atoms: _425  and  _427
REMARK  168  A    between atoms: _427  and  _428
REMARK  169  A    between atoms: _431  and  _433
REMARK  170  A    between atoms: _433  and  _434
REMARK  171  A    between atoms: _433  and  _436
REMARK  172  A    between atoms: _436  and  _437
REMARK  173  A    between atoms: _437  and  _438
REMARK  174  A    between atoms: _440  and  _442
REMARK  175  A    between atoms: _442  and  _443
REMARK  176  A    between atoms: _442  and  _445
REMARK  177  A    between atoms: _445  and  _446
REMARK  178  A    between atoms: _448  and  _450
REMARK  179  A    between atoms: _450  and  _451
REMARK  180  A    between atoms: _450  and  _453
REMARK  181  A    between atoms: _453  and  _454
REMARK  182  A    between atoms: _456  and  _458
REMARK  183  A    between atoms: _458  and  _459
REMARK  184  A    between atoms: _458  and  _461
REMARK  185  A    between atoms: _461  and  _462
REMARK  186  A    between atoms: _462  and  _463
REMARK  187  A    between atoms: _463  and  _464
REMARK  188  A    between atoms: _473  and  _475
REMARK  189  A    between atoms: _475  and  _476
REMARK  190  A    between atoms: _475  and  _478
REMARK  191  A    between atoms: _478  and  _479
REMARK  192  A    between atoms: _484  and  _486
REMARK  193  A    between atoms: _486  and  _487
REMARK  194  A    between atoms: _486  and  _489
REMARK  195  A    between atoms: _489  and  _490
REMARK  196  A    between atoms: _490  and  _491
REMARK  197  A    between atoms: _491  and  _492
REMARK  198  A    between atoms: _501  and  _503
REMARK  199  A    between atoms: _503  and  _504
REMARK  200  A    between atoms: _503  and  _506
REMARK  201  A    between atoms: _506  and  _507
REMARK  202  A    between atoms: _507  and  _508
REMARK  203  A    between atoms: _508  and  _509
REMARK  204  A    between atoms: _518  and  _520
REMARK  205  A    between atoms: _520  and  _521
REMARK  206  A    between atoms: _520  and  _523
REMARK  207  A    between atoms: _523  and  _524
REMARK  208  A    between atoms: _527  and  _529
REMARK  209  A    between atoms: _529  and  _530
REMARK  210  A    between atoms: _529  and  _532
REMARK  211  A    between atoms: _532  and  _533
REMARK  212  A    between atoms: _536  and  _538
REMARK  213  A    between atoms: _538  and  _539
REMARK  214  A    between atoms: _538  and  _541
REMARK  215  A    between atoms: _541  and  _542
REMARK                            x       y       z     vdW  Elec       q    Type
REMARK                         _______ _______ _______ _____ _____    ______ ____
ROOT
ATOM      1  CA  VAL A   1      10.692   6.304  12.235  0.00  0.00    +0.133 C 
ENDROOT
BRANCH   1   2
ATOM      2  CB  VAL A   1      10.951   5.373  11.031  0.00  0.00    +0.023 C 
ATOM      3  CG2 VAL A   1       9.611   5.000  10.338  0.00  0.00    +0.002 C 
ATOM      4  CG1 VAL A   1      11.882   6.051  10.057  0.00  0.00    +0.002 C 
ENDBRANCH   1   2
BRANCH   1   5
ATOM      5  N   VAL A   1      11.880   6.471  13.053  0.00  0.00    -0.239 NA
ATOM      6  H   VAL A   1      12.710   5.866  12.888  0.00  0.00    +0.142 HD
ENDBRANCH   1   5
BRANCH   1   7
ATOM      7  C   VAL A   1       9.533   5.809  13.118  0.00  0.00    +0.224 C 
ATOM      8  O   VAL A   1       8.415   6.283  12.985  0.00  0.00    -0.287 OA
ENDBRANCH   1   7
TORSDOF 3
REMARK  Name = ../refined-set-2016/3iue/3iue_pocket.pdb
REMARK  215 active torsions:
REMARK  status: ('A' for Active; 'I' for Inactive)
REMARK    1  A    between atoms: _1  and  _3
REMARK    2  A    between atoms: _3  and  _4
REMARK    3  A    between atoms: _3  and  _6
REMARK    4  A    between atoms: _10  and  _11
REMARK    5  A    between atoms: _16  and  _18
REMARK    6  A    between atoms: _18  and  _19
REMARK    7  A    between atoms: _18  and  _21
REMARK    8  A    between atoms: _21  and  _22
REMARK    9  A    between atoms: _25  and  _27
REMARK   10  A    between atoms: _27  and  _28
REMARK   11  A    between atoms: _27  and  _30
REMARK   12  A    between atoms: _30  and  _31
REMARK   13  A    between atoms: _31  and  _32
REMARK   14  A    between atoms: _34  and  _36
REMARK   15  A    between atoms: _36  and  _37
REMARK   16  A    between atoms: _39  and  _41
REMARK   17  A    between atoms: _41  and  _42
REMARK   18  A    between atoms: _45  and  _47
REMARK   19  A    between atoms: _47  and  _48
REMARK   20  A    between atoms: _47  and  _50
REMARK   21  A    between atoms: _50  and  _51
REMARK   22  A    between atoms: _54  and  _56
REMARK   23  A    between atoms: _56  and  _57
REMARK   24  A    between atoms: _56  and  _59
REMARK   25  A    between atoms: _59  and  _60
REMARK   26  A    between atoms: _65  and  _67
REMARK   27  A    between atoms: _67  and  _68
REMARK   28  A    between atoms: _67  and  _70
REMARK   29  A    between atoms: _70  and  _71
REMARK   30  A    between atoms: _71  and  _72
REMARK   31  A    between atoms: _75  and  _77
REMARK   32  A    between atoms: _77  and  _78
REMARK   33  A    between atoms: _80  and  _82
REMARK   34  A    between atoms: _82  and  _83
REMARK   35  A    between atoms: _82  and  _85
REMARK   36  A    between atoms: _85  and  _86
REMARK   37  A    between atoms: _91  and  _93
REMARK   38  A    between atoms: _93  and  _94
REMARK   39  A    between atoms: _93  and  _96
REMARK   40  A    between atoms: _96  and  _97
REMARK   41  A    between atoms: _100  and  _102
REMARK   42  A    between atoms: _102  and  _103
REMARK   43  A    between atoms: _106  and  _108
REMARK   44  A    between atoms: _108  and  _109
REMARK   45  A    between atoms: _108  and  _111
REMARK   46  A    between atoms: _111  and  _112
REMARK   47  A    between atoms: _115  and  _117
REMARK   48  A    between atoms: _117  and  _118
REMARK   49  A    between atoms: _117  and  _120
REMARK   50  A    between atoms: _123  and  _125
REMARK   51  A    between atoms: _125  and  _126
REMARK   52  A    between atoms: _125  and  _128
REMARK   53  A    between atoms: _128  and  _129
REMARK   54  A    between atoms: _131  and  _133
REMARK   55  A    between atoms: _133  and  _134
REMARK   56  A    between atoms: _133  and  _136
REMARK   57  A    between atoms: _136  and  _137
REMARK   58  A    between atoms: _140  and  _142
REMARK   59  A    between atoms: _142  and  _143
REMARK   60  A    between atoms: _142  and  _145
REMARK   61  A    between atoms: _145  and  _146
REMARK   62  A    between atoms: _152  and  _154
REMARK   63  A    between atoms: _154  and  _155
REMARK   64  A    between atoms: _154  and  _157
REMARK   65  A    between atoms: _157  and  _158
REMARK   66  A    between atoms: _163  and  _165
REMARK   67  A    between atoms: _165  and  _166
REMARK   68  A    between atoms: _165  and  _168
REMARK   69  A    between atoms: _168  and  _169
REMARK   70  A    between atoms: _169  and  _170
REMARK   71  A    between atoms: _175  and  _177
REMARK   72  A    between atoms: _177  and  _178
REMARK   73  A    between atoms: _177  and  _180
REMARK   74  A    between atoms: _180  and  _181
REMARK   75  A    between atoms: _187  and  _189
REMARK   76  A    between atoms: _189  and  _190
REMARK   77  A    between atoms: _189  and  _192
REMARK   78  A    between atoms: _192  and  _193
REMARK   79  A    between atoms: _198  and  _199
REMARK   80  A    between atoms: _202  and  _203
REMARK   81  A    between atoms: _208  and  _210
REMARK   82  A    between atoms: _210  and  _211
REMARK   83  A    between atoms: _210  and  _213
REMARK   84  A    between atoms: _213  and  _214
REMARK   85  A    between atoms: _214  and  _215
REMARK   86  A    between atoms: _218  and  _220
REMARK   87  A    between atoms: _220  and  _221
REMARK   88  A    between atoms: _220  and  _223
REMARK   89  A    between atoms: _223  and  _224
REMARK   90  A    between atoms: _229  and  _231
REMARK   91  A    between atoms: _231  and  _232
REMARK   92  A    between atoms: _231  and  _234
REMARK   93  A    between atoms: _234  and  _235
REMARK   94  A    between atoms: _241  and  _243
REMARK   95  A    between atoms: _243  and  _244
REMARK   96  A    between atoms: _243  and  _246
REMARK   97  A    between atoms: _249  and  _251
REMARK   98  A    between atoms: _251  and  _252
REMARK   99  A    between atoms: _251  and  _254
REMARK  100  A    between atoms: _257  and  _259
REMARK  101  A    between atoms: _259  and  _260
REMARK  102  A    between atoms: _259  and  _262
REMARK  103  A    between atoms: _262  and  _263
REMARK  104  A    between atoms: _269  and  _271
REMARK  105  A    between atoms: _271  and  _272
REMARK  106  A    between atoms: _271  and  _274
REMARK  107  A    between atoms: _274  and  _275
REMARK  108  A    between atoms: _281  and  _283
REMARK  109  A    between atoms: _283  and  _284
REMARK  110  A    between atoms: _286  and  _288
REMARK  111  A    between atoms: _288  and  _289
REMARK  112  A    between atoms: _288  and  _291
REMARK  113  A    between atoms: _291  and  _292
REMARK  114  A    between atoms: _292  and  _293
REMARK  115  A    between atoms: _296  and  _298
REMARK  116  A    between atoms: _298  and  _299
REMARK  117  A    between atoms: _298  and  _301
REMARK  118  A    between atoms: _301  and  _302
REMARK  119  A    between atoms: _302  and  _303
REMARK  120  A    between atoms: _303  and  _304
REMARK  121  A    between atoms: _304  and  _305
REMARK  122  A    between atoms: _309  and  _311
REMARK  123  A    between atoms: _311  and  _312
REMARK  124  A    between atoms: _311  and  _314
REMARK  125  A    between atoms: _314  and  _315
REMARK  126  A    between atoms: _318  and  _320
REMARK  127  A    between atoms: _320  and  _321
REMARK  128  A    between atoms: _320  and  _323
REMARK  129  A    between atoms: _323  and  _324
REMARK  130  A    between atoms: _329  and  _330
REMARK  131  A    between atoms: _332  and  _334
REMARK  132  A    between atoms: _334  and  _335
REMARK  133  A    between atoms: _334  and  _337
REMARK  134  A    between atoms: _337  and  _338
REMARK  135  A    between atoms: _338  and  _339
REMARK  136  A    between atoms: _344  and  _346
REMARK  137  A    between atoms: _346  and  _347
REMARK  138  A    between atoms: _346  and  _349
REMARK  139  A    between atoms: _349  and  _350
REMARK  140  A    between atoms: _353  and  _355
REMARK  141  A    between atoms: _355  and  _356
REMARK  142  A    between atoms: _355  and  _358
REMARK  143  A    between atoms: _358  and  _359
REMARK  144  A    between atoms: _362  and  _364
REMARK  145  A    between atoms: _364  and  _365
REMARK  146  A    between atoms: _367  and  _369
REMARK  147  A    between atoms: _369  and  _370
REMARK  148  A    between atoms: _369  and  _372
REMARK  149  A    between atoms: _376  and  _377
REMARK  150  A    between atoms: _382  and  _384
REMARK  151  A    between atoms: _384  and  _385
REMARK  152  A    between atoms: _384  and  _387
REMARK  153  A    between atoms: _387  and  _388
REMARK  154  A    between atoms: _391  and  _393
REMARK  155  A    between atoms: _393  and  _394
REMARK  156  A    between atoms: _393  and  _396
REMARK  157  A    between atoms: _399  and  _401
REMARK  158  A    between atoms: _401  and  _402
REMARK  159  A    between atoms: _401  and  _404
REMARK  160  A    between atoms: _404  and  _405
REMARK  161  A    between atoms: _405  and  _406
REMARK  162  A    between atoms: _406  and  _407
REMARK  163  A    between atoms: _416  and  _418
REMARK  164  A    between atoms: _418  and  _419
REMARK  165  A    between atoms: _418  and  _421
REMARK  166  A    between atoms: _421  and  _422
REMARK  167  A    between atoms: _425  and  _427
REMARK  168  A    between atoms: _427  and  _428
REMARK  169  A    between atoms: _431  and  _433
REMARK  170  A    between atoms: _433  and  _434
REMARK  171  A    between atoms: _433  and  _436
REMARK  172  A    between atoms: _436  and  _437
REMARK  173  A    between atoms: _437  and  _438
REMARK  174  A    between atoms: _440  and  _442
REMARK  175  A    between atoms: _442  and  _443
REMARK  176  A    between atoms: _442  and  _445
REMARK  177  A    between atoms: _445  and  _446
REMARK  178  A    between atoms: _448  and  _450
REMARK  179  A    between atoms: _450  and  _451
REMARK  180  A    between atoms: _450  and  _453
REMARK  181  A    between atoms: _453  and  _454
REMARK  182  A    between atoms: _456  and  _458
REMARK  183  A    between atoms: _458  and  _459
REMARK  184  A    between atoms: _458  and  _461
REMARK  185  A    between atoms: _461  and  _462
REMARK  186  A    between atoms: _462  and  _463
REMARK  187  A    between atoms: _463  and  _464
REMARK  188  A    between atoms: _473  and  _475
REMARK  189  A    between atoms: _475  and  _476
REMARK  190  A    between atoms: _475  and  _478
REMARK  191  A    between atoms: _478  and  _479
REMARK  192  A    between atoms: _484  and  _486
REMARK  193  A    between atoms: _486  and  _487
REMARK  194  A    between atoms: _486  and  _489
REMARK  195  A    between atoms: _489  and  _490
REMARK  196  A    between atoms: _490  and  _491
REMARK  197  A    between atoms: _491  and  _492
REMARK  198  A    between atoms: _501  and  _503
REMARK  199  A    between atoms: _503  and  _504
REMARK  200  A    between atoms: _503  and  _506
REMARK  201  A    between atoms: _506  and  _507
REMARK  202  A    between atoms: _507  and  _508
REMARK  203  A    between atoms: _508  and  _509
REMARK  204  A    between atoms: _518  and  _520
REMARK  205  A    between atoms: _520  and  _521
REMARK  206  A    between atoms: _520  and  _523
REMARK  207  A    between atoms: _523  and  _524
REMARK  208  A    between atoms: _527  and  _529
REMARK  209  A    between atoms: _529  and  _530
REMARK  210  A    between atoms: _529  and  _532
REMARK  211  A    between atoms: _532  and  _533
REMARK  212  A    between atoms: _536  and  _538
REMARK  213  A    between atoms: _538  and  _539
REMARK  214  A    between atoms: _538  and  _541
REMARK  215  A    between atoms: _541  and  _542
REMARK                            x       y       z     vdW  Elec       q    Type
REMARK                         _______ _______ _______ _____ _____    ______ ____
ROOT
ATOM      1  C   GLU A   4      14.433   3.679  -3.396  0.00  0.00    +0.241 C 
ATOM      2  O   GLU A   4      15.043   2.600  -3.373  0.00  0.00    -0.273 OA
ATOM      3  N   LYS A   5      15.060   4.860  -3.469  0.00  0.00    -0.297 N 
ATOM      4  H   LYS A   5      14.513   5.743  -3.419  0.00  0.00    +0.150 HD
ENDROOT
BRANCH   3   5
ATOM      5  CA  LYS A   5      16.515   4.909  -3.619  0.00  0.00    +0.149 C 
BRANCH   5   6
ATOM      6  C   LYS A   5      17.217   4.206  -2.446  0.00  0.00    +0.241 C 
ATOM      7  N   ASP A   6      16.773   4.514  -1.239  0.00  0.00    -0.297 N 
ATOM      8  H   ASP A   6      16.046   5.248  -1.121  0.00  0.00    +0.150 HD
ATOM      9  O   LYS A   5      18.139   3.388  -2.621  0.00  0.00    -0.273 OA
BRANCH   7  10
ATOM     10  CA  ASP A   6      17.306   3.821  -0.077  0.00  0.00    +0.160 C 
BRANCH  10  11
ATOM     11  C   ASP A   6      16.416   2.594   0.142  0.00  0.00    +0.241 C 
ATOM     12  O   ASP A   6      15.573   2.524   1.061  0.00  0.00    -0.273 OA
ATOM     13  N   TYR A   7      16.627   1.611  -0.727  0.00  0.00    -0.298 N 
ATOM     14  H   TYR A   7      17.464   1.631  -1.344  0.00  0.00    +0.150 HD
BRANCH  13  15
ATOM     15  CA  TYR A   7      15.681   0.505  -0.812  0.00  0.00    +0.141 C 
BRANCH  15  16
ATOM     16  C   TYR A   7      15.766  -0.406   0.426  0.00  0.00    +0.227 C 
ATOM     17  O   TYR A   7      14.739  -0.913   0.923  0.00  0.00    -0.286 OA
ENDBRANCH  15  16
BRANCH  15  18
ATOM     18  CB  TYR A   7      16.002  -0.260  -2.087  0.00  0.00    +0.054 C 
BRANCH  18  19
ATOM     19  CG  TYR A   7      15.060  -1.388  -2.396  0.00  0.00    -0.020 A 
ATOM     20  CD2 TYR A   7      15.392  -2.693  -2.043  0.00  0.00    -0.001 A 
ATOM     21  CE2 TYR A   7      14.528  -3.751  -2.353  0.00  0.00    +0.036 A 
ATOM     22  CZ  TYR A   7      13.339  -3.494  -3.021  0.00  0.00    +0.134 A 
ATOM     23  CE1 TYR A   7      12.983  -2.202  -3.375  0.00  0.00    +0.036 A 
ATOM     24  CD1 TYR A   7      13.860  -1.153  -3.081  0.00  0.00    -0.001 A 
BRANCH  22  25
ATOM     25  OH  TYR A   7      12.501  -4.542  -3.313  0.00  0.00    -0.506 OA
ATOM     26  HH  TYR A   7      12.224  -4.986  -2.472  0.00  0.00    +0.292 HD
ENDBRANCH  22  25
ENDBRANCH  18  19
ENDBRANCH  15  18
ENDBRANCH  13  15
ENDBRANCH  10  11
BRANCH  10  27
ATOM     27  CB  ASP A   6      17.336   4.723   1.147  0.00  0.00    +0.143 C 
BRANCH  27  28
ATOM     28  CG  ASP A   6      18.260   5.921   0.951  0.00  0.00    +0.367 C 
ATOM     29  OD2 ASP A   6      19.463   5.796   1.209  0.00  0.00    -0.246 OA
ATOM     30  OD1 ASP A   6      17.780   6.988   0.521  0.00  0.00    -0.246 OA
ENDBRANCH  27  28
ENDBRANCH  10  27
ENDBRANCH   7  10
ENDBRANCH   5   6
BRANCH   5  31
ATOM     31  CB  LYS A   5      17.051   6.353  -3.767  0.00  0.00    +0.029 C 
BRANCH  31  32
ATOM     32  CG  LYS A   5      18.520   6.349  -4.317  0.00  0.00    +0.000 C 
BRANCH  32  33
ATOM     33  CD  LYS A   5      19.398   7.540  -3.821  0.00  0.00    -0.024 C 
BRANCH  33  34
ATOM     34  CE  LYS A   5      19.948   7.160  -2.446  0.00  0.00    -0.086 C 
BRANCH  34  35
ATOM     35  NZ  LYS A   5      20.753   8.241  -1.791  0.00  0.00    +0.380 N 
ATOM     36  HZ1 LYS A   5      21.090   7.908  -0.865  0.00  0.00    -0.089 HD
ATOM     37  HZ2 LYS A   5      20.158   9.084  -1.662  0.00  0.00    -0.089 HD
ATOM     38  HZ3 LYS A   5      21.567   8.478  -2.393  0.00  0.00    -0.089 HD
ENDBRANCH  34  35
ENDBRANCH  33  34
ENDBRANCH  32  33
ENDBRANCH  31  32
ENDBRANCH   5  31
ENDBRANCH   3   5
BRANCH   1  39
ATOM     39  CA  GLU A   4      12.898   3.671  -3.344  0.00  0.00    +0.149 C 
BRANCH  39  42
ATOM     40  C   GLY A   3      12.212   5.570  -1.963  0.00  0.00    +0.243 C 
ATOM     41  O   GLY A   3      12.584   5.008  -0.939  0.00  0.00    -0.273 OA
ATOM     42  N   GLU A   4      12.288   4.999  -3.164  0.00  0.00    -0.297 N 
ATOM     43  H   GLU A   4      11.909   5.502  -3.992  0.00  0.00    +0.150 HD
BRANCH  40  44
ATOM     44  CA  GLY A   3      11.622   6.972  -1.904  0.00  0.00    +0.176 C 
BRANCH  44  46
ATOM     45  C   PHE A   2       9.894   6.705  -0.191  0.00  0.00    +0.241 C 
ATOM     46  N   GLY A   3      11.037   7.272  -0.580  0.00  0.00    -0.295 N 
ATOM     47  H   GLY A   3      11.523   7.935   0.057  0.00  0.00    +0.150 HD
ATOM     48  O   PHE A   2       9.166   6.051  -0.960  0.00  0.00    -0.273 OA
BRANCH  45  49
ATOM     49  CA  PHE A   2       9.508   6.860   1.282  0.00  0.00    +0.153 C 
BRANCH  49  52
ATOM     50  C   PHE A   1       7.414   7.806   2.159  0.00  0.00    +0.239 C 
ATOM     51  O   PHE A   1       7.982   8.642   2.858  0.00  0.00    -0.274 OA
ATOM     52  N   PHE A   2       8.056   6.927   1.392  0.00  0.00    -0.297 N 
ATOM     53  H   PHE A   2       7.490   6.251   0.841  0.00  0.00    +0.150 HD
BRANCH  50  54
ATOM     54  CA  PHE A   1       5.879   7.751   2.101  0.00  0.00    +0.149 C 
BRANCH  54  55
ATOM     55  N   PHE A   1       5.271   7.757   3.456  0.00  0.00    -0.238 NA
ATOM     56  H   PHE A   1       5.409   8.589   4.065  0.00  0.00    +0.142 HD
ENDBRANCH  54  55
BRANCH  54  57
ATOM     57  CB  PHE A   1       5.339   8.926   1.266  0.00  0.00    +0.053 C 
BRANCH  57  58
ATOM     58  CG  PHE A   1       3.856   8.827   0.999  0.00  0.00    -0.020 A 
ATOM     59  CD2 PHE A   1       2.935   9.168   1.996  0.00  0.00    -0.004 A 
ATOM     60  CE2 PHE A   1       1.544   9.055   1.764  0.00  0.00    -0.000 A 
ATOM     61  CZ  PHE A   1       1.083   8.563   0.505  0.00  0.00    -0.000 A 
ATOM     62  CE1 PHE A   1       2.003   8.222  -0.486  0.00  0.00    -0.000 A 
ATOM     63  CD1 PHE A   1       3.388   8.356  -0.229  0.00  0.00    -0.004 A 
ENDBRANCH  57  58
ENDBRANCH  54  57
ENDBRANCH  50  54
ENDBRANCH  49  52
BRANCH  49  64
ATOM     64  CB  PHE A   2      10.047   5.652   2.070  0.00  0.00    +0.055 C 
BRANCH  64  65
ATOM     65  CG  PHE A   2       9.888   5.785   3.563  0.00  0.00    -0.020 A 
ATOM     66  CD2 PHE A   2      10.808   6.521   4.314  0.00  0.00    -0.004 A 
ATOM     67  CE2 PHE A   2      10.649   6.664   5.690  0.00  0.00    -0.000 A 
ATOM     68  CZ  PHE A   2       9.549   6.068   6.316  0.00  0.00    -0.000 A 
ATOM     69  CE1 PHE A   2       8.638   5.324   5.565  0.00  0.00    -0.000 A 
ATOM     70  CD1 PHE A   2       8.800   5.205   4.207  0.00  0.00    -0.004 A 
ENDBRANCH  64  65
ENDBRANCH  49  64
ENDBRANCH  45  49
ENDBRANCH  44  46
ENDBRANCH  40  44
ENDBRANCH  39  42
BRANCH  39  71
ATOM     71  CB  GLU A   4      12.366   3.000  -4.605  0.00  0.00    +0.041 C 
BRANCH  71  72
ATOM     72  CG  GLU A   4      10.939   2.510  -4.447  0.00  0.00    +0.116 C 
BRANCH  72  73
ATOM     73  CD  GLU A   4      10.422   1.803  -5.684  0.00  0.00    +0.365 C 
ATOM     74  OE2 GLU A   4       9.288   1.292  -5.608  0.00  0.00    -0.246 OA
ATOM     75  OE1 GLU A   4      11.130   1.751  -6.709  0.00  0.00    -0.246 OA
ENDBRANCH  72  73
ENDBRANCH  71  72
ENDBRANCH  39  71
ENDBRANCH   1  39
TORSDOF 31
REMARK  Name = ../refined-set-2016/3iue/3iue_pocket.pdb
REMARK  215 active torsions:
REMARK  status: ('A' for Active; 'I' for Inactive)
REMARK    1  A    between atoms: _1  and  _3
REMARK    2  A    between atoms: _3  and  _4
REMARK    3  A    between atoms: _3  and  _6
REMARK    4  A    between atoms: _10  and  _11
REMARK    5  A    between atoms: _16  and  _18
REMARK    6  A    between atoms: _18  and  _19
REMARK    7  A    between atoms: _18  and  _21
REMARK    8  A    between atoms: _21  and  _22
REMARK    9  A    between atoms: _25  and  _27
REMARK   10  A    between atoms: _27  and  _28
REMARK   11  A    between atoms: _27  and  _30
REMARK   12  A    between atoms: _30  and  _31
REMARK   13  A    between atoms: _31  and  _32
REMARK   14  A    between atoms: _34  and  _36
REMARK   15  A    between atoms: _36  and  _37
REMARK   16  A    between atoms: _39  and  _41
REMARK   17  A    between atoms: _41  and  _42
REMARK   18  A    between atoms: _45  and  _47
REMARK   19  A    between atoms: _47  and  _48
REMARK   20  A    between atoms: _47  and  _50
REMARK   21  A    between atoms: _50  and  _51
REMARK   22  A    between atoms: _54  and  _56
REMARK   23  A    between atoms: _56  and  _57
REMARK   24  A    between atoms: _56  and  _59
REMARK   25  A    between atoms: _59  and  _60
REMARK   26  A    between atoms: _65  and  _67
REMARK   27  A    between atoms: _67  and  _68
REMARK   28  A    between atoms: _67  and  _70
REMARK   29  A    between atoms: _70  and  _71
REMARK   30  A    between atoms: _71  and  _72
REMARK   31  A    between atoms: _75  and  _77
REMARK   32  A    between atoms: _77  and  _78
REMARK   33  A    between atoms: _80  and  _82
REMARK   34  A    between atoms: _82  and  _83
REMARK   35  A    between atoms: _82  and  _85
REMARK   36  A    between atoms: _85  and  _86
REMARK   37  A    between atoms: _91  and  _93
REMARK   38  A    between atoms: _93  and  _94
REMARK   39  A    between atoms: _93  and  _96
REMARK   40  A    between atoms: _96  and  _97
REMARK   41  A    between atoms: _100  and  _102
REMARK   42  A    between atoms: _102  and  _103
REMARK   43  A    between atoms: _106  and  _108
REMARK   44  A    between atoms: _108  and  _109
REMARK   45  A    between atoms: _108  and  _111
REMARK   46  A    between atoms: _111  and  _112
REMARK   47  A    between atoms: _115  and  _117
REMARK   48  A    between atoms: _117  and  _118
REMARK   49  A    between atoms: _117  and  _120
REMARK   50  A    between atoms: _123  and  _125
REMARK   51  A    between atoms: _125  and  _126
REMARK   52  A    between atoms: _125  and  _128
REMARK   53  A    between atoms: _128  and  _129
REMARK   54  A    between atoms: _131  and  _133
REMARK   55  A    between atoms: _133  and  _134
REMARK   56  A    between atoms: _133  and  _136
REMARK   57  A    between atoms: _136  and  _137
REMARK   58  A    between atoms: _140  and  _142
REMARK   59  A    between atoms: _142  and  _143
REMARK   60  A    between atoms: _142  and  _145
REMARK   61  A    between atoms: _145  and  _146
REMARK   62  A    between atoms: _152  and  _154
REMARK   63  A    between atoms: _154  and  _155
REMARK   64  A    between atoms: _154  and  _157
REMARK   65  A    between atoms: _157  and  _158
REMARK   66  A    between atoms: _163  and  _165
REMARK   67  A    between atoms: _165  and  _166
REMARK   68  A    between atoms: _165  and  _168
REMARK   69  A    between atoms: _168  and  _169
REMARK   70  A    between atoms: _169  and  _170
REMARK   71  A    between atoms: _175  and  _177
REMARK   72  A    between atoms: _177  and  _178
REMARK   73  A    between atoms: _177  and  _180
REMARK   74  A    between atoms: _180  and  _181
REMARK   75  A    between atoms: _187  and  _189
REMARK   76  A    between atoms: _189  and  _190
REMARK   77  A    between atoms: _189  and  _192
REMARK   78  A    between atoms: _192  and  _193
REMARK   79  A    between atoms: _198  and  _199
REMARK   80  A    between atoms: _202  and  _203
REMARK   81  A    between atoms: _208  and  _210
REMARK   82  A    between atoms: _210  and  _211
REMARK   83  A    between atoms: _210  and  _213
REMARK   84  A    between atoms: _213  and  _214
REMARK   85  A    between atoms: _214  and  _215
REMARK   86  A    between atoms: _218  and  _220
REMARK   87  A    between atoms: _220  and  _221
REMARK   88  A    between atoms: _220  and  _223
REMARK   89  A    between atoms: _223  and  _224
REMARK   90  A    between atoms: _229  and  _231
REMARK   91  A    between atoms: _231  and  _232
REMARK   92  A    between atoms: _231  and  _234
REMARK   93  A    between atoms: _234  and  _235
REMARK   94  A    between atoms: _241  and  _243
REMARK   95  A    between atoms: _243  and  _244
REMARK   96  A    between atoms: _243  and  _246
REMARK   97  A    between atoms: _249  and  _251
REMARK   98  A    between atoms: _251  and  _252
REMARK   99  A    between atoms: _251  and  _254
REMARK  100  A    between atoms: _257  and  _259
REMARK  101  A    between atoms: _259  and  _260
REMARK  102  A    between atoms: _259  and  _262
REMARK  103  A    between atoms: _262  and  _263
REMARK  104  A    between atoms: _269  and  _271
REMARK  105  A    between atoms: _271  and  _272
REMARK  106  A    between atoms: _271  and  _274
REMARK  107  A    between atoms: _274  and  _275
REMARK  108  A    between atoms: _281  and  _283
REMARK  109  A    between atoms: _283  and  _284
REMARK  110  A    between atoms: _286  and  _288
REMARK  111  A    between atoms: _288  and  _289
REMARK  112  A    between atoms: _288  and  _291
REMARK  113  A    between atoms: _291  and  _292
REMARK  114  A    between atoms: _292  and  _293
REMARK  115  A    between atoms: _296  and  _298
REMARK  116  A    between atoms: _298  and  _299
REMARK  117  A    between atoms: _298  and  _301
REMARK  118  A    between atoms: _301  and  _302
REMARK  119  A    between atoms: _302  and  _303
REMARK  120  A    between atoms: _303  and  _304
REMARK  121  A    between atoms: _304  and  _305
REMARK  122  A    between atoms: _309  and  _311
REMARK  123  A    between atoms: _311  and  _312
REMARK  124  A    between atoms: _311  and  _314
REMARK  125  A    between atoms: _314  and  _315
REMARK  126  A    between atoms: _318  and  _320
REMARK  127  A    between atoms: _320  and  _321
REMARK  128  A    between atoms: _320  and  _323
REMARK  129  A    between atoms: _323  and  _324
REMARK  130  A    between atoms: _329  and  _330
REMARK  131  A    between atoms: _332  and  _334
REMARK  132  A    between atoms: _334  and  _335
REMARK  133  A    between atoms: _334  and  _337
REMARK  134  A    between atoms: _337  and  _338
REMARK  135  A    between atoms: _338  and  _339
REMARK  136  A    between atoms: _344  and  _346
REMARK  137  A    between atoms: _346  and  _347
REMARK  138  A    between atoms: _346  and  _349
REMARK  139  A    between atoms: _349  and  _350
REMARK  140  A    between atoms: _353  and  _355
REMARK  141  A    between atoms: _355  and  _356
REMARK  142  A    between atoms: _355  and  _358
REMARK  143  A    between atoms: _358  and  _359
REMARK  144  A    between atoms: _362  and  _364
REMARK  145  A    between atoms: _364  and  _365
REMARK  146  A    between atoms: _367  and  _369
REMARK  147  A    between atoms: _369  and  _370
REMARK  148  A    between atoms: _369  and  _372
REMARK  149  A    between atoms: _376  and  _377
REMARK  150  A    between atoms: _382  and  _384
REMARK  151  A    between atoms: _384  and  _385
REMARK  152  A    between atoms: _384  and  _387
REMARK  153  A    between atoms: _387  and  _388
REMARK  154  A    between atoms: _391  and  _393
REMARK  155  A    between atoms: _393  and  _394
REMARK  156  A    between atoms: _393  and  _396
REMARK  157  A    between atoms: _399  and  _401
REMARK  158  A    between atoms: _401  and  _402
REMARK  159  A    between atoms: _401  and  _404
REMARK  160  A    between atoms: _404  and  _405
REMARK  161  A    between atoms: _405  and  _406
REMARK  162  A    between atoms: _406  and  _407
REMARK  163  A    between atoms: _416  and  _418
REMARK  164  A    between atoms: _418  and  _419
REMARK  165  A    between atoms: _418  and  _421
REMARK  166  A    between atoms: _421  and  _422
REMARK  167  A    between atoms: _425  and  _427
REMARK  168  A    between atoms: _427  and  _428
REMARK  169  A    between atoms: _431  and  _433
REMARK  170  A    between atoms: _433  and  _434
REMARK  171  A    between atoms: _433  and  _436
REMARK  172  A    between atoms: _436  and  _437
REMARK  173  A    between atoms: _437  and  _438
REMARK  174  A    between atoms: _440  and  _442
REMARK  175  A    between atoms: _442  and  _443
REMARK  176  A    between atoms: _442  and  _445
REMARK  177  A    between atoms: _445  and  _446
REMARK  178  A    between atoms: _448  and  _450
REMARK  179  A    between atoms: _450  and  _451
REMARK  180  A    between atoms: _450  and  _453
REMARK  181  A    between atoms: _453  and  _454
REMARK  182  A    between atoms: _456  and  _458
REMARK  183  A    between atoms: _458  and  _459
REMARK  184  A    between atoms: _458  and  _461
REMARK  185  A    between atoms: _461  and  _462
REMARK  186  A    between atoms: _462  and  _463
REMARK  187  A    between atoms: _463  and  _464
REMARK  188  A    between atoms: _473  and  _475
REMARK  189  A    between atoms: _475  and  _476
REMARK  190  A    between atoms: _475  and  _478
REMARK  191  A    between atoms: _478  and  _479
REMARK  192  A    between atoms: _484  and  _486
REMARK  193  A    between atoms: _486  and  _487
REMARK  194  A    between atoms: _486  and  _489
REMARK  195  A    between atoms: _489  and  _490
REMARK  196  A    between atoms: _490  and  _491
REMARK  197  A    between atoms: _491  and  _492
REMARK  198  A    between atoms: _501  and  _503
REMARK  199  A    between atoms: _503  and  _504
REMARK  200  A    between atoms: _503  and  _506
REMARK  201  A    between atoms: _506  and  _507
REMARK  202  A    between atoms: _507  and  _508
REMARK  203  A    between atoms: _508  and  _509
REMARK  204  A    between atoms: _518  and  _520
REMARK  205  A    between atoms: _520  and  _521
REMARK  206  A    between atoms: _520  and  _523
REMARK  207  A    between atoms: _523  and  _524
REMARK  208  A    between atoms: _527  and  _529
REMARK  209  A    between atoms: _529  and  _530
REMARK  210  A    between atoms: _529  and  _532
REMARK  211  A    between atoms: _532  and  _533
REMARK  212  A    between atoms: _536  and  _538
REMARK  213  A    between atoms: _538  and  _539
REMARK  214  A    between atoms: _538  and  _541
REMARK  215  A    between atoms: _541  and  _542
REMARK                            x       y       z     vdW  Elec       q    Type
REMARK                         _______ _______ _______ _____ _____    ______ ____
ROOT
ATOM      1  C   GLN A   1      14.337   0.987   4.341  0.00  0.00    +0.238 C 
ATOM      2  O   GLN A   1      13.654   0.720   5.313  0.00  0.00    -0.274 OA
ATOM      3  N   LEU A   2      13.812   1.045   3.114  0.00  0.00    -0.298 N 
ATOM      4  H   LEU A   2      14.446   1.208   2.306  0.00  0.00    +0.150 HD
ENDROOT
BRANCH   1   5
ATOM      5  CA  GLN A   1      15.863   1.227   4.482  0.00  0.00    +0.145 C 
BRANCH   5   6
ATOM      6  N   GLN A   1      16.596   0.531   3.445  0.00  0.00    -0.238 NA
ATOM      7  H   GLN A   1      17.207   1.065   2.794  0.00  0.00    +0.142 HD
ENDBRANCH   5   6
BRANCH   5   8
ATOM      8  CB  GLN A   1      16.182   2.721   4.423  0.00  0.00    +0.036 C 
BRANCH   8   9
ATOM      9  CG  GLN A   1      15.348   3.541   5.382  0.00  0.00    +0.087 C 
BRANCH   9  10
ATOM     10  CD  GLN A   1      15.708   4.998   5.323  0.00  0.00    +0.219 C 
ATOM     11  OE1 GLN A   1      16.712   5.389   5.861  0.00  0.00    -0.275 OA
ATOM     12  NE2 GLN A   1      14.887   5.802   4.654  0.00  0.00    -0.329 N 
ATOM     13 HE21 GLN A   1      15.100   6.817   4.578  0.00  0.00    +0.145 HD
ATOM     14 HE22 GLN A   1      14.031   5.416   4.206  0.00  0.00    +0.145 HD
ENDBRANCH   9  10
ENDBRANCH   8   9
ENDBRANCH   5   8
ENDBRANCH   1   5
BRANCH   3  15
ATOM     15  CA  LEU A   2      12.395   0.889   2.868  0.00  0.00    +0.137 C 
BRANCH  15  16
ATOM     16  C   LEU A   2      11.955  -0.502   3.276  0.00  0.00    +0.227 C 
ATOM     17  O   LEU A   2      10.926  -0.653   3.893  0.00  0.00    -0.286 OA
ENDBRANCH  15  16
BRANCH  15  18
ATOM     18  CB  LEU A   2      12.104   1.101   1.375  0.00  0.00    +0.028 C 
BRANCH  18  19
ATOM     19  CG  LEU A   2      10.675   0.906   0.857  0.00  0.00    +0.002 C 
ATOM     20  CD2 LEU A   2       9.637   1.733   1.679  0.00  0.00    +0.000 C 
ATOM     21  CD1 LEU A   2      10.678   1.280  -0.627  0.00  0.00    +0.000 C 
ENDBRANCH  18  19
ENDBRANCH  15  18
ENDBRANCH   3  15
TORSDOF 9
REMARK  Name = ../refined-set-2016/3iue/3iue_pocket.pdb
REMARK  215 active torsions:
REMARK  status: ('A' for Active; 'I' for Inactive)
REMARK    1  A    between atoms: _1  and  _3
REMARK    2  A    between atoms: _3  and  _4
REMARK    3  A    between atoms: _3  and  _6
REMARK    4  A    between atoms: _10  and  _11
REMARK    5  A    between atoms: _16  and  _18
REMARK    6  A    between atoms: _18  and  _19
REMARK    7  A    between atoms: _18  and  _21
REMARK    8  A    between atoms: _21  and  _22
REMARK    9  A    between atoms: _25  and  _27
REMARK   10  A    between atoms: _27  and  _28
REMARK   11  A    between atoms: _27  and  _30
REMARK   12  A    between atoms: _30  and  _31
REMARK   13  A    between atoms: _31  and  _32
REMARK   14  A    between atoms: _34  and  _36
REMARK   15  A    between atoms: _36  and  _37
REMARK   16  A    between atoms: _39  and  _41
REMARK   17  A    between atoms: _41  and  _42
REMARK   18  A    between atoms: _45  and  _47
REMARK   19  A    between atoms: _47  and  _48
REMARK   20  A    between atoms: _47  and  _50
REMARK   21  A    between atoms: _50  and  _51
REMARK   22  A    between atoms: _54  and  _56
REMARK   23  A    between atoms: _56  and  _57
REMARK   24  A    between atoms: _56  and  _59
REMARK   25  A    between atoms: _59  and  _60
REMARK   26  A    between atoms: _65  and  _67
REMARK   27  A    between atoms: _67  and  _68
REMARK   28  A    between atoms: _67  and  _70
REMARK   29  A    between atoms: _70  and  _71
REMARK   30  A    between atoms: _71  and  _72
REMARK   31  A    between atoms: _75  and  _77
REMARK   32  A    between atoms: _77  and  _78
REMARK   33  A    between atoms: _80  and  _82
REMARK   34  A    between atoms: _82  and  _83
REMARK   35  A    between atoms: _82  and  _85
REMARK   36  A    between atoms: _85  and  _86
REMARK   37  A    between atoms: _91  and  _93
REMARK   38  A    between atoms: _93  and  _94
REMARK   39  A    between atoms: _93  and  _96
REMARK   40  A    between atoms: _96  and  _97
REMARK   41  A    between atoms: _100  and  _102
REMARK   42  A    between atoms: _102  and  _103
REMARK   43  A    between atoms: _106  and  _108
REMARK   44  A    between atoms: _108  and  _109
REMARK   45  A    between atoms: _108  and  _111
REMARK   46  A    between atoms: _111  and  _112
REMARK   47  A    between atoms: _115  and  _117
REMARK   48  A    between atoms: _117  and  _118
REMARK   49  A    between atoms: _117  and  _120
REMARK   50  A    between atoms: _123  and  _125
REMARK   51  A    between atoms: _125  and  _126
REMARK   52  A    between atoms: _125  and  _128
REMARK   53  A    between atoms: _128  and  _129
REMARK   54  A    between atoms: _131  and  _133
REMARK   55  A    between atoms: _133  and  _134
REMARK   56  A    between atoms: _133  and  _136
REMARK   57  A    between atoms: _136  and  _137
REMARK   58  A    between atoms: _140  and  _142
REMARK   59  A    between atoms: _142  and  _143
REMARK   60  A    between atoms: _142  and  _145
REMARK   61  A    between atoms: _145  and  _146
REMARK   62  A    between atoms: _152  and  _154
REMARK   63  A    between atoms: _154  and  _155
REMARK   64  A    between atoms: _154  and  _157
REMARK   65  A    between atoms: _157  and  _158
REMARK   66  A    between atoms: _163  and  _165
REMARK   67  A    between atoms: _165  and  _166
REMARK   68  A    between atoms: _165  and  _168
REMARK   69  A    between atoms: _168  and  _169
REMARK   70  A    between atoms: _169  and  _170
REMARK   71  A    between atoms: _175  and  _177
REMARK   72  A    between atoms: _177  and  _178
REMARK   73  A    between atoms: _177  and  _180
REMARK   74  A    between atoms: _180  and  _181
REMARK   75  A    between atoms: _187  and  _189
REMARK   76  A    between atoms: _189  and  _190
REMARK   77  A    between atoms: _189  and  _192
REMARK   78  A    between atoms: _192  and  _193
REMARK   79  A    between atoms: _198  and  _199
REMARK   80  A    between atoms: _202  and  _203
REMARK   81  A    between atoms: _208  and  _210
REMARK   82  A    between atoms: _210  and  _211
REMARK   83  A    between atoms: _210  and  _213
REMARK   84  A    between atoms: _213  and  _214
REMARK   85  A    between atoms: _214  and  _215
REMARK   86  A    between atoms: _218  and  _220
REMARK   87  A    between atoms: _220  and  _221
REMARK   88  A    between atoms: _220  and  _223
REMARK   89  A    between atoms: _223  and  _224
REMARK   90  A    between atoms: _229  and  _231
REMARK   91  A    between atoms: _231  and  _232
REMARK   92  A    between atoms: _231  and  _234
REMARK   93  A    between atoms: _234  and  _235
REMARK   94  A    between atoms: _241  and  _243
REMARK   95  A    between atoms: _243  and  _244
REMARK   96  A    between atoms: _243  and  _246
REMARK   97  A    between atoms: _249  and  _251
REMARK   98  A    between atoms: _251  and  _252
REMARK   99  A    between atoms: _251  and  _254
REMARK  100  A    between atoms: _257  and  _259
REMARK  101  A    between atoms: _259  and  _260
REMARK  102  A    between atoms: _259  and  _262
REMARK  103  A    between atoms: _262  and  _263
REMARK  104  A    between atoms: _269  and  _271
REMARK  105  A    between atoms: _271  and  _272
REMARK  106  A    between atoms: _271  and  _274
REMARK  107  A    between atoms: _274  and  _275
REMARK  108  A    between atoms: _281  and  _283
REMARK  109  A    between atoms: _283  and  _284
REMARK  110  A    between atoms: _286  and  _288
REMARK  111  A    between atoms: _288  and  _289
REMARK  112  A    between atoms: _288  and  _291
REMARK  113  A    between atoms: _291  and  _292
REMARK  114  A    between atoms: _292  and  _293
REMARK  115  A    between atoms: _296  and  _298
REMARK  116  A    between atoms: _298  and  _299
REMARK  117  A    between atoms: _298  and  _301
REMARK  118  A    between atoms: _301  and  _302
REMARK  119  A    between atoms: _302  and  _303
REMARK  120  A    between atoms: _303  and  _304
REMARK  121  A    between atoms: _304  and  _305
REMARK  122  A    between atoms: _309  and  _311
REMARK  123  A    between atoms: _311  and  _312
REMARK  124  A    between atoms: _311  and  _314
REMARK  125  A    between atoms: _314  and  _315
REMARK  126  A    between atoms: _318  and  _320
REMARK  127  A    between atoms: _320  and  _321
REMARK  128  A    between atoms: _320  and  _323
REMARK  129  A    between atoms: _323  and  _324
REMARK  130  A    between atoms: _329  and  _330
REMARK  131  A    between atoms: _332  and  _334
REMARK  132  A    between atoms: _334  and  _335
REMARK  133  A    between atoms: _334  and  _337
REMARK  134  A    between atoms: _337  and  _338
REMARK  135  A    between atoms: _338  and  _339
REMARK  136  A    between atoms: _344  and  _346
REMARK  137  A    between atoms: _346  and  _347
REMARK  138  A    between atoms: _346  and  _349
REMARK  139  A    between atoms: _349  and  _350
REMARK  140  A    between atoms: _353  and  _355
REMARK  141  A    between atoms: _355  and  _356
REMARK  142  A    between atoms: _355  and  _358
REMARK  143  A    between atoms: _358  and  _359
REMARK  144  A    between atoms: _362  and  _364
REMARK  145  A    between atoms: _364  and  _365
REMARK  146  A    between atoms: _367  and  _369
REMARK  147  A    between atoms: _369  and  _370
REMARK  148  A    between atoms: _369  and  _372
REMARK  149  A    between atoms: _376  and  _377
REMARK  150  A    between atoms: _382  and  _384
REMARK  151  A    between atoms: _384  and  _385
REMARK  152  A    between atoms: _384  and  _387
REMARK  153  A    between atoms: _387  and  _388
REMARK  154  A    between atoms: _391  and  _393
REMARK  155  A    between atoms: _393  and  _394
REMARK  156  A    between atoms: _393  and  _396
REMARK  157  A    between atoms: _399  and  _401
REMARK  158  A    between atoms: _401  and  _402
REMARK  159  A    between atoms: _401  and  _404
REMARK  160  A    between atoms: _404  and  _405
REMARK  161  A    between atoms: _405  and  _406
REMARK  162  A    between atoms: _406  and  _407
REMARK  163  A    between atoms: _416  and  _418
REMARK  164  A    between atoms: _418  and  _419
REMARK  165  A    between atoms: _418  and  _421
REMARK  166  A    between atoms: _421  and  _422
REMARK  167  A    between atoms: _425  and  _427
REMARK  168  A    between atoms: _427  and  _428
REMARK  169  A    between atoms: _431  and  _433
REMARK  170  A    between atoms: _433  and  _434
REMARK  171  A    between atoms: _433  and  _436
REMARK  172  A    between atoms: _436  and  _437
REMARK  173  A    between atoms: _437  and  _438
REMARK  174  A    between atoms: _440  and  _442
REMARK  175  A    between atoms: _442  and  _443
REMARK  176  A    between atoms: _442  and  _445
REMARK  177  A    between atoms: _445  and  _446
REMARK  178  A    between atoms: _448  and  _450
REMARK  179  A    between atoms: _450  and  _451
REMARK  180  A    between atoms: _450  and  _453
REMARK  181  A    between atoms: _453  and  _454
REMARK  182  A    between atoms: _456  and  _458
REMARK  183  A    between atoms: _458  and  _459
REMARK  184  A    between atoms: _458  and  _461
REMARK  185  A    between atoms: _461  and  _462
REMARK  186  A    between atoms: _462  and  _463
REMARK  187  A    between atoms: _463  and  _464
REMARK  188  A    between atoms: _473  and  _475
REMARK  189  A    between atoms: _475  and  _476
REMARK  190  A    between atoms: _475  and  _478
REMARK  191  A    between atoms: _478  and  _479
REMARK  192  A    between atoms: _484  and  _486
REMARK  193  A    between atoms: _486  and  _487
REMARK  194  A    between atoms: _486  and  _489
REMARK  195  A    between atoms: _489  and  _490
REMARK  196  A    between atoms: _490  and  _491
REMARK  197  A    between atoms: _491  and  _492
REMARK  198  A    between atoms: _501  and  _503
REMARK  199  A    between atoms: _503  and  _504
REMARK  200  A    between atoms: _503  and  _506
REMARK  201  A    between atoms: _506  and  _507
REMARK  202  A    between atoms: _507  and  _508
REMARK  203  A    between atoms: _508  and  _509
REMARK  204  A    between atoms: _518  and  _520
REMARK  205  A    between atoms: _520  and  _521
REMARK  206  A    between atoms: _520  and  _523
REMARK  207  A    between atoms: _523  and  _524
REMARK  208  A    between atoms: _527  and  _529
REMARK  209  A    between atoms: _529  and  _530
REMARK  210  A    between atoms: _529  and  _532
REMARK  211  A    between atoms: _532  and  _533
REMARK  212  A    between atoms: _536  and  _538
REMARK  213  A    between atoms: _538  and  _539
REMARK  214  A    between atoms: _538  and  _541
REMARK  215  A    between atoms: _541  and  _542
REMARK                            x       y       z     vdW  Elec       q    Type
REMARK                         _______ _______ _______ _____ _____    ______ ____
ROOT
ATOM      1  CA  ILE A   1      10.647  -0.030   7.497  0.00  0.00    +0.133 C 
ENDROOT
BRANCH   1   2
ATOM      2  N   ILE A   1      11.845  -0.741   7.022  0.00  0.00    -0.239 NA
ATOM      3  H   ILE A   1      12.391  -0.353   6.226  0.00  0.00    +0.142 HD
ENDBRANCH   1   2
BRANCH   1   4
ATOM      4  C   ILE A   1       9.365  -0.871   7.308  0.00  0.00    +0.224 C 
ATOM      5  O   ILE A   1       8.519  -0.894   8.183  0.00  0.00    -0.287 OA
ENDBRANCH   1   4
BRANCH   1   6
ATOM      6  CB  ILE A   1      10.537   1.391   6.910  0.00  0.00    +0.023 C 
ATOM      7  CG2 ILE A   1       9.181   2.011   7.278  0.00  0.00    +0.002 C 
BRANCH   6   8
ATOM      8  CG1 ILE A   1      11.664   2.261   7.484  0.00  0.00    +0.002 C 
ATOM      9  CD1 ILE A   1      11.951   3.540   6.692  0.00  0.00    +0.000 C 
ENDBRANCH   6   8
ENDBRANCH   1   6
TORSDOF 4
REMARK  Name = ../refined-set-2016/3iue/3iue_pocket.pdb
REMARK  215 active torsions:
REMARK  status: ('A' for Active; 'I' for Inactive)
REMARK    1  A    between atoms: _1  and  _3
REMARK    2  A    between atoms: _3  and  _4
REMARK    3  A    between atoms: _3  and  _6
REMARK    4  A    between atoms: _10  and  _11
REMARK    5  A    between atoms: _16  and  _18
REMARK    6  A    between atoms: _18  and  _19
REMARK    7  A    between atoms: _18  and  _21
REMARK    8  A    between atoms: _21  and  _22
REMARK    9  A    between atoms: _25  and  _27
REMARK   10  A    between atoms: _27  and  _28
REMARK   11  A    between atoms: _27  and  _30
REMARK   12  A    between atoms: _30  and  _31
REMARK   13  A    between atoms: _31  and  _32
REMARK   14  A    between atoms: _34  and  _36
REMARK   15  A    between atoms: _36  and  _37
REMARK   16  A    between atoms: _39  and  _41
REMARK   17  A    between atoms: _41  and  _42
REMARK   18  A    between atoms: _45  and  _47
REMARK   19  A    between atoms: _47  and  _48
REMARK   20  A    between atoms: _47  and  _50
REMARK   21  A    between atoms: _50  and  _51
REMARK   22  A    between atoms: _54  and  _56
REMARK   23  A    between atoms: _56  and  _57
REMARK   24  A    between atoms: _56  and  _59
REMARK   25  A    between atoms: _59  and  _60
REMARK   26  A    between atoms: _65  and  _67
REMARK   27  A    between atoms: _67  and  _68
REMARK   28  A    between atoms: _67  and  _70
REMARK   29  A    between atoms: _70  and  _71
REMARK   30  A    between atoms: _71  and  _72
REMARK   31  A    between atoms: _75  and  _77
REMARK   32  A    between atoms: _77  and  _78
REMARK   33  A    between atoms: _80  and  _82
REMARK   34  A    between atoms: _82  and  _83
REMARK   35  A    between atoms: _82  and  _85
REMARK   36  A    between atoms: _85  and  _86
REMARK   37  A    between atoms: _91  and  _93
REMARK   38  A    between atoms: _93  and  _94
REMARK   39  A    between atoms: _93  and  _96
REMARK   40  A    between atoms: _96  and  _97
REMARK   41  A    between atoms: _100  and  _102
REMARK   42  A    between atoms: _102  and  _103
REMARK   43  A    between atoms: _106  and  _108
REMARK   44  A    between atoms: _108  and  _109
REMARK   45  A    between atoms: _108  and  _111
REMARK   46  A    between atoms: _111  and  _112
REMARK   47  A    between atoms: _115  and  _117
REMARK   48  A    between atoms: _117  and  _118
REMARK   49  A    between atoms: _117  and  _120
REMARK   50  A    between atoms: _123  and  _125
REMARK   51  A    between atoms: _125  and  _126
REMARK   52  A    between atoms: _125  and  _128
REMARK   53  A    between atoms: _128  and  _129
REMARK   54  A    between atoms: _131  and  _133
REMARK   55  A    between atoms: _133  and  _134
REMARK   56  A    between atoms: _133  and  _136
REMARK   57  A    between atoms: _136  and  _137
REMARK   58  A    between atoms: _140  and  _142
REMARK   59  A    between atoms: _142  and  _143
REMARK   60  A    between atoms: _142  and  _145
REMARK   61  A    between atoms: _145  and  _146
REMARK   62  A    between atoms: _152  and  _154
REMARK   63  A    between atoms: _154  and  _155
REMARK   64  A    between atoms: _154  and  _157
REMARK   65  A    between atoms: _157  and  _158
REMARK   66  A    between atoms: _163  and  _165
REMARK   67  A    between atoms: _165  and  _166
REMARK   68  A    between atoms: _165  and  _168
REMARK   69  A    between atoms: _168  and  _169
REMARK   70  A    between atoms: _169  and  _170
REMARK   71  A    between atoms: _175  and  _177
REMARK   72  A    between atoms: _177  and  _178
REMARK   73  A    between atoms: _177  and  _180
REMARK   74  A    between atoms: _180  and  _181
REMARK   75  A    between atoms: _187  and  _189
REMARK   76  A    between atoms: _189  and  _190
REMARK   77  A    between atoms: _189  and  _192
REMARK   78  A    between atoms: _192  and  _193
REMARK   79  A    between atoms: _198  and  _199
REMARK   80  A    between atoms: _202  and  _203
REMARK   81  A    between atoms: _208  and  _210
REMARK   82  A    between atoms: _210  and  _211
REMARK   83  A    between atoms: _210  and  _213
REMARK   84  A    between atoms: _213  and  _214
REMARK   85  A    between atoms: _214  and  _215
REMARK   86  A    between atoms: _218  and  _220
REMARK   87  A    between atoms: _220  and  _221
REMARK   88  A    between atoms: _220  and  _223
REMARK   89  A    between atoms: _223  and  _224
REMARK   90  A    between atoms: _229  and  _231
REMARK   91  A    between atoms: _231  and  _232
REMARK   92  A    between atoms: _231  and  _234
REMARK   93  A    between atoms: _234  and  _235
REMARK   94  A    between atoms: _241  and  _243
REMARK   95  A    between atoms: _243  and  _244
REMARK   96  A    between atoms: _243  and  _246
REMARK   97  A    between atoms: _249  and  _251
REMARK   98  A    between atoms: _251  and  _252
REMARK   99  A    between atoms: _251  and  _254
REMARK  100  A    between atoms: _257  and  _259
REMARK  101  A    between atoms: _259  and  _260
REMARK  102  A    between atoms: _259  and  _262
REMARK  103  A    between atoms: _262  and  _263
REMARK  104  A    between atoms: _269  and  _271
REMARK  105  A    between atoms: _271  and  _272
REMARK  106  A    between atoms: _271  and  _274
REMARK  107  A    between atoms: _274  and  _275
REMARK  108  A    between atoms: _281  and  _283
REMARK  109  A    between atoms: _283  and  _284
REMARK  110  A    between atoms: _286  and  _288
REMARK  111  A    between atoms: _288  and  _289
REMARK  112  A    between atoms: _288  and  _291
REMARK  113  A    between atoms: _291  and  _292
REMARK  114  A    between atoms: _292  and  _293
REMARK  115  A    between atoms: _296  and  _298
REMARK  116  A    between atoms: _298  and  _299
REMARK  117  A    between atoms: _298  and  _301
REMARK  118  A    between atoms: _301  and  _302
REMARK  119  A    between atoms: _302  and  _303
REMARK  120  A    between atoms: _303  and  _304
REMARK  121  A    between atoms: _304  and  _305
REMARK  122  A    between atoms: _309  and  _311
REMARK  123  A    between atoms: _311  and  _312
REMARK  124  A    between atoms: _311  and  _314
REMARK  125  A    between atoms: _314  and  _315
REMARK  126  A    between atoms: _318  and  _320
REMARK  127  A    between atoms: _320  and  _321
REMARK  128  A    between atoms: _320  and  _323
REMARK  129  A    between atoms: _323  and  _324
REMARK  130  A    between atoms: _329  and  _330
REMARK  131  A    between atoms: _332  and  _334
REMARK  132  A    between atoms: _334  and  _335
REMARK  133  A    between atoms: _334  and  _337
REMARK  134  A    between atoms: _337  and  _338
REMARK  135  A    between atoms: _338  and  _339
REMARK  136  A    between atoms: _344  and  _346
REMARK  137  A    between atoms: _346  and  _347
REMARK  138  A    between atoms: _346  and  _349
REMARK  139  A    between atoms: _349  and  _350
REMARK  140  A    between atoms: _353  and  _355
REMARK  141  A    between atoms: _355  and  _356
REMARK  142  A    between atoms: _355  and  _358
REMARK  143  A    between atoms: _358  and  _359
REMARK  144  A    between atoms: _362  and  _364
REMARK  145  A    between atoms: _364  and  _365
REMARK  146  A    between atoms: _367  and  _369
REMARK  147  A    between atoms: _369  and  _370
REMARK  148  A    between atoms: _369  and  _372
REMARK  149  A    between atoms: _376  and  _377
REMARK  150  A    between atoms: _382  and  _384
REMARK  151  A    between atoms: _384  and  _385
REMARK  152  A    between atoms: _384  and  _387
REMARK  153  A    between atoms: _387  and  _388
REMARK  154  A    between atoms: _391  and  _393
REMARK  155  A    between atoms: _393  and  _394
REMARK  156  A    between atoms: _393  and  _396
REMARK  157  A    between atoms: _399  and  _401
REMARK  158  A    between atoms: _401  and  _402
REMARK  159  A    between atoms: _401  and  _404
REMARK  160  A    between atoms: _404  and  _405
REMARK  161  A    between atoms: _405  and  _406
REMARK  162  A    between atoms: _406  and  _407
REMARK  163  A    between atoms: _416  and  _418
REMARK  164  A    between atoms: _418  and  _419
REMARK  165  A    between atoms: _418  and  _421
REMARK  166  A    between atoms: _421  and  _422
REMARK  167  A    between atoms: _425  and  _427
REMARK  168  A    between atoms: _427  and  _428
REMARK  169  A    between atoms: _431  and  _433
REMARK  170  A    between atoms: _433  and  _434
REMARK  171  A    between atoms: _433  and  _436
REMARK  172  A    between atoms: _436  and  _437
REMARK  173  A    between atoms: _437  and  _438
REMARK  174  A    between atoms: _440  and  _442
REMARK  175  A    between atoms: _442  and  _443
REMARK  176  A    between atoms: _442  and  _445
REMARK  177  A    between atoms: _445  and  _446
REMARK  178  A    between atoms: _448  and  _450
REMARK  179  A    between atoms: _450  and  _451
REMARK  180  A    between atoms: _450  and  _453
REMARK  181  A    between atoms: _453  and  _454
REMARK  182  A    between atoms: _456  and  _458
REMARK  183  A    between atoms: _458  and  _459
REMARK  184  A    between atoms: _458  and  _461
REMARK  185  A    between atoms: _461  and  _462
REMARK  186  A    between atoms: _462  and  _463
REMARK  187  A    between atoms: _463  and  _464
REMARK  188  A    between atoms: _473  and  _475
REMARK  189  A    between atoms: _475  and  _476
REMARK  190  A    between atoms: _475  and  _478
REMARK  191  A    between atoms: _478  and  _479
REMARK  192  A    between atoms: _484  and  _486
REMARK  193  A    between atoms: _486  and  _487
REMARK  194  A    between atoms: _486  and  _489
REMARK  195  A    between atoms: _489  and  _490
REMARK  196  A    between atoms: _490  and  _491
REMARK  197  A    between atoms: _491  and  _492
REMARK  198  A    between atoms: _501  and  _503
REMARK  199  A    between atoms: _503  and  _504
REMARK  200  A    between atoms: _503  and  _506
REMARK  201  A    between atoms: _506  and  _507
REMARK  202  A    between atoms: _507  and  _508
REMARK  203  A    between atoms: _508  and  _509
REMARK  204  A    between atoms: _518  and  _520
REMARK  205  A    between atoms: _520  and  _521
REMARK  206  A    between atoms: _520  and  _523
REMARK  207  A    between atoms: _523  and  _524
REMARK  208  A    between atoms: _527  and  _529
REMARK  209  A    between atoms: _529  and  _530
REMARK  210  A    between atoms: _529  and  _532
REMARK  211  A    between atoms: _532  and  _533
REMARK  212  A    between atoms: _536  and  _538
REMARK  213  A    between atoms: _538  and  _539
REMARK  214  A    between atoms: _538  and  _541
REMARK  215  A    between atoms: _541  and  _542
REMARK                            x       y       z     vdW  Elec       q    Type
REMARK                         _______ _______ _______ _____ _____    ______ ____
ROOT
ATOM      1  CA  THR A   4      13.284   7.107  -7.497  0.00  0.00    +0.176 C 
ENDROOT
BRANCH   1   2
ATOM      2  C   THR A   4      13.229   8.151  -8.624  0.00  0.00    +0.243 C 
ATOM      3  N   VAL A   5      13.177   9.432  -8.250  0.00  0.00    -0.297 N 
ATOM      4  H   VAL A   5      13.090   9.655  -7.238  0.00  0.00    +0.150 HD
ATOM      5  O   THR A   4      13.254   7.794  -9.796  0.00  0.00    -0.273 OA
BRANCH   3   6
ATOM      6  CA  VAL A   5      13.239  10.544  -9.222  0.00  0.00    +0.149 C 
BRANCH   6   7
ATOM      7  C   VAL A   5      14.687  10.700  -9.669  0.00  0.00    +0.241 C 
ATOM      8  O   VAL A   5      15.608  10.564  -8.854  0.00  0.00    -0.273 OA
ATOM      9  N   ARG A   6      14.907  10.953 -10.964  0.00  0.00    -0.298 N 
ATOM     10  H   ARG A   6      14.099  11.122 -11.596  0.00  0.00    +0.150 HD
BRANCH   9  11
ATOM     11  CA  ARG A   6      16.271  10.996 -11.508  0.00  0.00    +0.137 C 
BRANCH  11  12
ATOM     12  C   ARG A   6      16.550  12.277 -12.278  0.00  0.00    +0.227 C 
ATOM     13  O   ARG A   6      15.639  12.860 -12.855  0.00  0.00    -0.286 OA
ENDBRANCH  11  12
BRANCH  11  14
ATOM     14  CB  ARG A   6      16.526   9.804 -12.438  0.00  0.00    +0.031 C 
BRANCH  14  15
ATOM     15  CG  ARG A   6      16.289   8.469 -11.738  0.00  0.00    +0.045 C 
BRANCH  15  16
ATOM     16  CD  ARG A   6      16.558   7.245 -12.632  0.00  0.00    +0.174 C 
BRANCH  16  17
ATOM     17  NE  ARG A   6      16.408   6.035 -11.808  0.00  0.00    -0.265 N 
ATOM     18  CZ  ARG A   6      17.403   5.483 -11.109  0.00  0.00    +0.342 C 
ATOM     19  NH2 ARG A   6      17.184   4.394 -10.348  0.00  0.00    -0.292 N 
ATOM     20 HH21 ARG A   6      17.966   3.972  -9.807  0.00  0.00    +0.255 HD
ATOM     21 HH22 ARG A   6      16.233   3.975 -10.301  0.00  0.00    +0.255 HD
ATOM     22  NH1 ARG A   6      18.630   5.991 -11.178  0.00  0.00    -0.292 N 
ATOM     23 HH11 ARG A   6      19.403   5.559 -10.633  0.00  0.00    +0.255 HD
ATOM     24 HH12 ARG A   6      18.817   6.820 -11.777  0.00  0.00    +0.255 HD
ATOM     25  HE  ARG A   6      15.472   5.583 -11.768  0.00  0.00    +0.259 HD
ENDBRANCH  16  17
ENDBRANCH  15  16
ENDBRANCH  14  15
ENDBRANCH  11  14
ENDBRANCH   9  11
ENDBRANCH   6   7
BRANCH   6  26
ATOM     26  CB  VAL A   5      12.757  11.893  -8.627  0.00  0.00    +0.027 C 
ATOM     27  CG2 VAL A   5      11.334  11.778  -8.081  0.00  0.00    +0.002 C 
ATOM     28  CG1 VAL A   5      12.832  12.992  -9.694  0.00  0.00    +0.002 C 
ENDBRANCH   6  26
ENDBRANCH   3   6
ENDBRANCH   1   2
BRANCH   1  30
ATOM     29  C   PRO A   3      10.903   6.419  -7.552  0.00  0.00    +0.241 C 
ATOM     30  N   THR A   4      12.196   6.120  -7.539  0.00  0.00    -0.295 N 
ATOM     31  H   THR A   4      12.458   5.114  -7.560  0.00  0.00    +0.150 HD
ATOM     32  O   PRO A   3      10.428   7.575  -7.570  0.00  0.00    -0.273 OA
BRANCH  29  39
ATOM     33  C   VAL A   2       9.013   5.756  -5.404  0.00  0.00    +0.244 C 
ATOM     34  O   VAL A   2      10.152   5.886  -4.934  0.00  0.00    -0.273 OA
ATOM     35  N   PRO A   3       8.808   5.448  -6.701  0.00  0.00    -0.272 N 
ATOM     36  CD  PRO A   3       7.549   5.243  -7.459  0.00  0.00    +0.094 C 
ATOM     37  CG  PRO A   3       7.984   4.395  -8.618  0.00  0.00    +0.024 C 
ATOM     38  CB  PRO A   3       9.423   4.901  -8.913  0.00  0.00    +0.031 C 
ATOM     39  CA  PRO A   3       9.997   5.205  -7.518  0.00  0.00    +0.152 C 
BRANCH  33  40
ATOM     40  CA  VAL A   2       7.783   5.910  -4.503  0.00  0.00    +0.149 C 
BRANCH  40  42
ATOM     41  C   GLY A   1       7.160   4.019  -3.061  0.00  0.00    +0.240 C 
ATOM     42  N   VAL A   2       7.924   5.085  -3.291  0.00  0.00    -0.297 N 
ATOM     43  H   VAL A   2       8.647   5.345  -2.589  0.00  0.00    +0.150 HD
ATOM     44  O   GLY A   1       6.307   3.599  -3.872  0.00  0.00    -0.274 OA
BRANCH  41  45
ATOM     45  CA  GLY A   1       7.359   3.326  -1.729  0.00  0.00    +0.169 C 
BRANCH  45  46
ATOM     46  N   GLY A   1       6.062   3.063  -1.107  0.00  0.00    -0.236 NA
ATOM     47  H   GLY A   1       5.549   2.192  -1.352  0.00  0.00    +0.142 HD
ENDBRANCH  45  46
ENDBRANCH  41  45
ENDBRANCH  40  42
BRANCH  40  48
ATOM     48  CB  VAL A   2       7.587   7.400  -4.114  0.00  0.00    +0.027 C 
ATOM     49  CG2 VAL A   2       6.370   7.564  -3.226  0.00  0.00    +0.002 C 
ATOM     50  CG1 VAL A   2       7.483   8.296  -5.353  0.00  0.00    +0.002 C 
ENDBRANCH  40  48
ENDBRANCH  33  40
ENDBRANCH  29  39
ENDBRANCH   1  30
BRANCH   1  51
ATOM     51  CB  THR A   4      14.655   6.375  -7.530  0.00  0.00    +0.137 C 
ATOM     52  CG2 THR A   4      15.819   7.372  -7.525  0.00  0.00    +0.034 C 
BRANCH  51  53
ATOM     53  OG1 THR A   4      14.756   5.534  -6.365  0.00  0.00    -0.382 OA
ATOM     54  HG1 THR A   4      15.626   5.062  -6.375  0.00  0.00    +0.210 HD
ENDBRANCH  51  53
ENDBRANCH   1  51
TORSDOF 19
REMARK  Name = ../refined-set-2016/3iue/3iue_pocket.pdb
REMARK  215 active torsions:
REMARK  status: ('A' for Active; 'I' for Inactive)
REMARK    1  A    between atoms: _1  and  _3
REMARK    2  A    between atoms: _3  and  _4
REMARK    3  A    between atoms: _3  and  _6
REMARK    4  A    between atoms: _10  and  _11
REMARK    5  A    between atoms: _16  and  _18
REMARK    6  A    between atoms: _18  and  _19
REMARK    7  A    between atoms: _18  and  _21
REMARK    8  A    between atoms: _21  and  _22
REMARK    9  A    between atoms: _25  and  _27
REMARK   10  A    between atoms: _27  and  _28
REMARK   11  A    between atoms: _27  and  _30
REMARK   12  A    between atoms: _30  and  _31
REMARK   13  A    between atoms: _31  and  _32
REMARK   14  A    between atoms: _34  and  _36
REMARK   15  A    between atoms: _36  and  _37
REMARK   16  A    between atoms: _39  and  _41
REMARK   17  A    between atoms: _41  and  _42
REMARK   18  A    between atoms: _45  and  _47
REMARK   19  A    between atoms: _47  and  _48
REMARK   20  A    between atoms: _47  and  _50
REMARK   21  A    between atoms: _50  and  _51
REMARK   22  A    between atoms: _54  and  _56
REMARK   23  A    between atoms: _56  and  _57
REMARK   24  A    between atoms: _56  and  _59
REMARK   25  A    between atoms: _59  and  _60
REMARK   26  A    between atoms: _65  and  _67
REMARK   27  A    between atoms: _67  and  _68
REMARK   28  A    between atoms: _67  and  _70
REMARK   29  A    between atoms: _70  and  _71
REMARK   30  A    between atoms: _71  and  _72
REMARK   31  A    between atoms: _75  and  _77
REMARK   32  A    between atoms: _77  and  _78
REMARK   33  A    between atoms: _80  and  _82
REMARK   34  A    between atoms: _82  and  _83
REMARK   35  A    between atoms: _82  and  _85
REMARK   36  A    between atoms: _85  and  _86
REMARK   37  A    between atoms: _91  and  _93
REMARK   38  A    between atoms: _93  and  _94
REMARK   39  A    between atoms: _93  and  _96
REMARK   40  A    between atoms: _96  and  _97
REMARK   41  A    between atoms: _100  and  _102
REMARK   42  A    between atoms: _102  and  _103
REMARK   43  A    between atoms: _106  and  _108
REMARK   44  A    between atoms: _108  and  _109
REMARK   45  A    between atoms: _108  and  _111
REMARK   46  A    between atoms: _111  and  _112
REMARK   47  A    between atoms: _115  and  _117
REMARK   48  A    between atoms: _117  and  _118
REMARK   49  A    between atoms: _117  and  _120
REMARK   50  A    between atoms: _123  and  _125
REMARK   51  A    between atoms: _125  and  _126
REMARK   52  A    between atoms: _125  and  _128
REMARK   53  A    between atoms: _128  and  _129
REMARK   54  A    between atoms: _131  and  _133
REMARK   55  A    between atoms: _133  and  _134
REMARK   56  A    between atoms: _133  and  _136
REMARK   57  A    between atoms: _136  and  _137
REMARK   58  A    between atoms: _140  and  _142
REMARK   59  A    between atoms: _142  and  _143
REMARK   60  A    between atoms: _142  and  _145
REMARK   61  A    between atoms: _145  and  _146
REMARK   62  A    between atoms: _152  and  _154
REMARK   63  A    between atoms: _154  and  _155
REMARK   64  A    between atoms: _154  and  _157
REMARK   65  A    between atoms: _157  and  _158
REMARK   66  A    between atoms: _163  and  _165
REMARK   67  A    between atoms: _165  and  _166
REMARK   68  A    between atoms: _165  and  _168
REMARK   69  A    between atoms: _168  and  _169
REMARK   70  A    between atoms: _169  and  _170
REMARK   71  A    between atoms: _175  and  _177
REMARK   72  A    between atoms: _177  and  _178
REMARK   73  A    between atoms: _177  and  _180
REMARK   74  A    between atoms: _180  and  _181
REMARK   75  A    between atoms: _187  and  _189
REMARK   76  A    between atoms: _189  and  _190
REMARK   77  A    between atoms: _189  and  _192
REMARK   78  A    between atoms: _192  and  _193
REMARK   79  A    between atoms: _198  and  _199
REMARK   80  A    between atoms: _202  and  _203
REMARK   81  A    between atoms: _208  and  _210
REMARK   82  A    between atoms: _210  and  _211
REMARK   83  A    between atoms: _210  and  _213
REMARK   84  A    between atoms: _213  and  _214
REMARK   85  A    between atoms: _214  and  _215
REMARK   86  A    between atoms: _218  and  _220
REMARK   87  A    between atoms: _220  and  _221
REMARK   88  A    between atoms: _220  and  _223
REMARK   89  A    between atoms: _223  and  _224
REMARK   90  A    between atoms: _229  and  _231
REMARK   91  A    between atoms: _231  and  _232
REMARK   92  A    between atoms: _231  and  _234
REMARK   93  A    between atoms: _234  and  _235
REMARK   94  A    between atoms: _241  and  _243
REMARK   95  A    between atoms: _243  and  _244
REMARK   96  A    between atoms: _243  and  _246
REMARK   97  A    between atoms: _249  and  _251
REMARK   98  A    between atoms: _251  and  _252
REMARK   99  A    between atoms: _251  and  _254
REMARK  100  A    between atoms: _257  and  _259
REMARK  101  A    between atoms: _259  and  _260
REMARK  102  A    between atoms: _259  and  _262
REMARK  103  A    between atoms: _262  and  _263
REMARK  104  A    between atoms: _269  and  _271
REMARK  105  A    between atoms: _271  and  _272
REMARK  106  A    between atoms: _271  and  _274
REMARK  107  A    between atoms: _274  and  _275
REMARK  108  A    between atoms: _281  and  _283
REMARK  109  A    between atoms: _283  and  _284
REMARK  110  A    between atoms: _286  and  _288
REMARK  111  A    between atoms: _288  and  _289
REMARK  112  A    between atoms: _288  and  _291
REMARK  113  A    between atoms: _291  and  _292
REMARK  114  A    between atoms: _292  and  _293
REMARK  115  A    between atoms: _296  and  _298
REMARK  116  A    between atoms: _298  and  _299
REMARK  117  A    between atoms: _298  and  _301
REMARK  118  A    between atoms: _301  and  _302
REMARK  119  A    between atoms: _302  and  _303
REMARK  120  A    between atoms: _303  and  _304
REMARK  121  A    between atoms: _304  and  _305
REMARK  122  A    between atoms: _309  and  _311
REMARK  123  A    between atoms: _311  and  _312
REMARK  124  A    between atoms: _311  and  _314
REMARK  125  A    between atoms: _314  and  _315
REMARK  126  A    between atoms: _318  and  _320
REMARK  127  A    between atoms: _320  and  _321
REMARK  128  A    between atoms: _320  and  _323
REMARK  129  A    between atoms: _323  and  _324
REMARK  130  A    between atoms: _329  and  _330
REMARK  131  A    between atoms: _332  and  _334
REMARK  132  A    between atoms: _334  and  _335
REMARK  133  A    between atoms: _334  and  _337
REMARK  134  A    between atoms: _337  and  _338
REMARK  135  A    between atoms: _338  and  _339
REMARK  136  A    between atoms: _344  and  _346
REMARK  137  A    between atoms: _346  and  _347
REMARK  138  A    between atoms: _346  and  _349
REMARK  139  A    between atoms: _349  and  _350
REMARK  140  A    between atoms: _353  and  _355
REMARK  141  A    between atoms: _355  and  _356
REMARK  142  A    between atoms: _355  and  _358
REMARK  143  A    between atoms: _358  and  _359
REMARK  144  A    between atoms: _362  and  _364
REMARK  145  A    between atoms: _364  and  _365
REMARK  146  A    between atoms: _367  and  _369
REMARK  147  A    between atoms: _369  and  _370
REMARK  148  A    between atoms: _369  and  _372
REMARK  149  A    between atoms: _376  and  _377
REMARK  150  A    between atoms: _382  and  _384
REMARK  151  A    between atoms: _384  and  _385
REMARK  152  A    between atoms: _384  and  _387
REMARK  153  A    between atoms: _387  and  _388
REMARK  154  A    between atoms: _391  and  _393
REMARK  155  A    between atoms: _393  and  _394
REMARK  156  A    between atoms: _393  and  _396
REMARK  157  A    between atoms: _399  and  _401
REMARK  158  A    between atoms: _401  and  _402
REMARK  159  A    between atoms: _401  and  _404
REMARK  160  A    between atoms: _404  and  _405
REMARK  161  A    between atoms: _405  and  _406
REMARK  162  A    between atoms: _406  and  _407
REMARK  163  A    between atoms: _416  and  _418
REMARK  164  A    between atoms: _418  and  _419
REMARK  165  A    between atoms: _418  and  _421
REMARK  166  A    between atoms: _421  and  _422
REMARK  167  A    between atoms: _425  and  _427
REMARK  168  A    between atoms: _427  and  _428
REMARK  169  A    between atoms: _431  and  _433
REMARK  170  A    between atoms: _433  and  _434
REMARK  171  A    between atoms: _433  and  _436
REMARK  172  A    between atoms: _436  and  _437
REMARK  173  A    between atoms: _437  and  _438
REMARK  174  A    between atoms: _440  and  _442
REMARK  175  A    between atoms: _442  and  _443
REMARK  176  A    between atoms: _442  and  _445
REMARK  177  A    between atoms: _445  and  _446
REMARK  178  A    between atoms: _448  and  _450
REMARK  179  A    between atoms: _450  and  _451
REMARK  180  A    between atoms: _450  and  _453
REMARK  181  A    between atoms: _453  and  _454
REMARK  182  A    between atoms: _456  and  _458
REMARK  183  A    between atoms: _458  and  _459
REMARK  184  A    between atoms: _458  and  _461
REMARK  185  A    between atoms: _461  and  _462
REMARK  186  A    between atoms: _462  and  _463
REMARK  187  A    between atoms: _463  and  _464
REMARK  188  A    between atoms: _473  and  _475
REMARK  189  A    between atoms: _475  and  _476
REMARK  190  A    between atoms: _475  and  _478
REMARK  191  A    between atoms: _478  and  _479
REMARK  192  A    between atoms: _484  and  _486
REMARK  193  A    between atoms: _486  and  _487
REMARK  194  A    between atoms: _486  and  _489
REMARK  195  A    between atoms: _489  and  _490
REMARK  196  A    between atoms: _490  and  _491
REMARK  197  A    between atoms: _491  and  _492
REMARK  198  A    between atoms: _501  and  _503
REMARK  199  A    between atoms: _503  and  _504
REMARK  200  A    between atoms: _503  and  _506
REMARK  201  A    between atoms: _506  and  _507
REMARK  202  A    between atoms: _507  and  _508
REMARK  203  A    between atoms: _508  and  _509
REMARK  204  A    between atoms: _518  and  _520
REMARK  205  A    between atoms: _520  and  _521
REMARK  206  A    between atoms: _520  and  _523
REMARK  207  A    between atoms: _523  and  _524
REMARK  208  A    between atoms: _527  and  _529
REMARK  209  A    between atoms: _529  and  _530
REMARK  210  A    between atoms: _529  and  _532
REMARK  211  A    between atoms: _532  and  _533
REMARK  212  A    between atoms: _536  and  _538
REMARK  213  A    between atoms: _538  and  _539
REMARK  214  A    between atoms: _538  and  _541
REMARK  215  A    between atoms: _541  and  _542
REMARK                            x       y       z     vdW  Elec       q    Type
REMARK                         _______ _______ _______ _____ _____    ______ ____
ROOT
ATOM      1  CA  ARG A   6      24.503  14.239  -1.402  0.00  0.00    +0.149 C 
ENDROOT
BRANCH   1   2
ATOM      2  C   ARG A   6      25.149  14.403  -2.786  0.00  0.00    +0.241 C 
ATOM      3  O   ARG A   6      26.380  14.406  -2.909  0.00  0.00    -0.273 OA
ATOM      4  N   ASN A   7      24.333  14.578  -3.828  0.00  0.00    -0.297 N 
ATOM      5  H   ASN A   7      23.304  14.514  -3.693  0.00  0.00    +0.150 HD
BRANCH   4   6
ATOM      6  CA  ASN A   7      24.875  14.859  -5.161  0.00  0.00    +0.158 C 
BRANCH   6   7
ATOM      7  C   ASN A   7      25.635  16.192  -5.217  0.00  0.00    +0.241 C 
ATOM      8  N   ARG A   8      25.281  17.111  -4.309  0.00  0.00    -0.298 N 
ATOM      9  H   ARG A   8      24.504  16.887  -3.655  0.00  0.00    +0.150 HD
ATOM     10  O   ASN A   7      26.529  16.361  -6.054  0.00  0.00    -0.273 OA
BRANCH   8  11
ATOM     11  CA  ARG A   8      25.937  18.421  -4.191  0.00  0.00    +0.137 C 
BRANCH  11  12
ATOM     12  C   ARG A   8      27.431  18.291  -3.877  0.00  0.00    +0.227 C 
ATOM     13  O   ARG A   8      28.185  19.233  -4.091  0.00  0.00    -0.286 OA
ENDBRANCH  11  12
BRANCH  11  14
ATOM     14  CB  ARG A   8      25.254  19.244  -3.086  0.00  0.00    +0.031 C 
BRANCH  14  15
ATOM     15  CG  ARG A   8      25.612  18.765  -1.700  0.00  0.00    +0.045 C 
BRANCH  15  16
ATOM     16  CD  ARG A   8      24.804  19.442  -0.599  0.00  0.00    +0.174 C 
BRANCH  16  17
ATOM     17  NE  ARG A   8      23.412  19.019  -0.645  0.00  0.00    -0.265 N 
ATOM     18  HE  ARG A   8      23.214  17.998  -0.662  0.00  0.00    +0.259 HD
ATOM     19  CZ  ARG A   8      22.381  19.852  -0.667  0.00  0.00    +0.342 C 
ATOM     20  NH2 ARG A   8      22.582  21.162  -0.609  0.00  0.00    -0.292 N 
ATOM     21 HH21 ARG A   8      23.550  21.537  -0.546  0.00  0.00    +0.255 HD
ATOM     22 HH22 ARG A   8      21.772  21.814  -0.626  0.00  0.00    +0.255 HD
ATOM     23  NH1 ARG A   8      21.149  19.371  -0.720  0.00  0.00    -0.292 N 
ATOM     24 HH11 ARG A   8      20.337  20.021  -0.737  0.00  0.00    +0.255 HD
ATOM     25 HH12 ARG A   8      20.993  18.343  -0.744  0.00  0.00    +0.255 HD
ENDBRANCH  16  17
ENDBRANCH  15  16
ENDBRANCH  14  15
ENDBRANCH  11  14
ENDBRANCH   8  11
ENDBRANCH   6   7
BRANCH   6  26
ATOM     26  CB  ASN A   7      23.779  14.816  -6.248  0.00  0.00    +0.114 C 
BRANCH  26  27
ATOM     27  CG  ASN A   7      23.275  13.391  -6.522  0.00  0.00    +0.222 C 
ATOM     28  OD1 ASN A   7      23.905  12.424  -6.130  0.00  0.00    -0.275 OA
ATOM     29  ND2 ASN A   7      22.141  13.275  -7.195  0.00  0.00    -0.329 N 
ATOM     30 HD21 ASN A   7      21.756  12.332  -7.407  0.00  0.00    +0.145 HD
ATOM     31 HD22 ASN A   7      21.635  14.127  -7.511  0.00  0.00    +0.145 HD
ENDBRANCH  26  27
ENDBRANCH   6  26
ENDBRANCH   4   6
ENDBRANCH   1   2
BRANCH   1  34
ATOM     32  C   SER A   5      22.436  15.406  -1.029  0.00  0.00    +0.243 C 
ATOM     33  O   SER A   5      23.077  16.382  -0.639  0.00  0.00    -0.273 OA
ATOM     34  N   ARG A   6      23.034  14.275  -1.415  0.00  0.00    -0.297 N 
ATOM     35  H   ARG A   6      22.479  13.448  -1.714  0.00  0.00    +0.150 HD
BRANCH  32  36
ATOM     36  CA  SER A   5      20.902  15.456  -1.082  0.00  0.00    +0.178 C 
BRANCH  36  38
ATOM     37  C   SER A   4      20.622  14.103  -3.093  0.00  0.00    +0.243 C 
ATOM     38  N   SER A   5      20.371  14.292  -1.795  0.00  0.00    -0.295 N 
ATOM     39  H   SER A   5      19.788  13.600  -1.281  0.00  0.00    +0.150 HD
ATOM     40  O   SER A   4      21.222  14.910  -3.811  0.00  0.00    -0.273 OA
BRANCH  37  41
ATOM     41  CA  SER A   4      20.187  12.775  -3.649  0.00  0.00    +0.178 C 
BRANCH  41  43
ATOM     42  C   MET A   3      18.902  12.038  -5.564  0.00  0.00    +0.241 C 
ATOM     43  N   SER A   4      19.685  12.946  -5.004  0.00  0.00    -0.295 N 
ATOM     44  H   SER A   4      19.946  13.797  -5.542  0.00  0.00    +0.150 HD
ATOM     45  O   MET A   3      18.611  10.974  -5.026  0.00  0.00    -0.273 OA
BRANCH  42  46
ATOM     46  CA  MET A   3      18.386  12.370  -6.950  0.00  0.00    +0.149 C 
BRANCH  46  49
ATOM     47  C   ALA A   2      19.476  10.488  -7.998  0.00  0.00    +0.241 C 
ATOM     48  O   ALA A   2      20.589  10.908  -7.674  0.00  0.00    -0.273 OA
ATOM     49  N   MET A   3      18.367  11.164  -7.771  0.00  0.00    -0.297 N 
ATOM     50  H   MET A   3      17.470  10.834  -8.181  0.00  0.00    +0.150 HD
BRANCH  47  51
ATOM     51  CA  ALA A   2      19.326   9.173  -8.751  0.00  0.00    +0.149 C 
ATOM     52  CB  ALA A   2      19.491   8.013  -7.775  0.00  0.00    +0.031 C 
BRANCH  51  54
ATOM     53  C   LEU A   1      20.369  10.056 -10.794  0.00  0.00    +0.238 C 
ATOM     54  N   ALA A   2      20.320   9.118  -9.834  0.00  0.00    -0.297 N 
ATOM     55  H   ALA A   2      21.002   8.333  -9.857  0.00  0.00    +0.150 HD
ATOM     56  O   LEU A   1      19.531  10.946 -10.896  0.00  0.00    -0.274 OA
BRANCH  53  57
ATOM     57  CA  LEU A   1      21.509   9.979 -11.816  0.00  0.00    +0.145 C 
BRANCH  57  58
ATOM     58  N   LEU A   1      20.990   9.921 -13.194  0.00  0.00    -0.238 NA
ATOM     59  H   LEU A   1      21.305  10.630 -13.887  0.00  0.00    +0.142 HD
ENDBRANCH  57  58
BRANCH  57  60
ATOM     60  CB  LEU A   1      22.485  11.154 -11.653  0.00  0.00    +0.026 C 
BRANCH  60  61
ATOM     61  CG  LEU A   1      23.092  11.317 -10.241  0.00  0.00    +0.002 C 
ATOM     62  CD2 LEU A   1      23.905  10.103  -9.792  0.00  0.00    +0.000 C 
ATOM     63  CD1 LEU A   1      23.912  12.626 -10.206  0.00  0.00    +0.000 C 
ENDBRANCH  60  61
ENDBRANCH  57  60
ENDBRANCH  53  57
ENDBRANCH  51  54
ENDBRANCH  47  51
ENDBRANCH  46  49
BRANCH  46  64
ATOM     64  CB  MET A   3      16.985  12.931  -6.822  0.00  0.00    +0.041 C 
BRANCH  64  65
ATOM     65  CG  MET A   3      16.414  13.188  -8.132  0.00  0.00    +0.060 C 
BRANCH  65  66
ATOM     66  SD  MET A   3      16.825  14.853  -8.444  0.00  0.00    -0.139 S 
ATOM     67  CE  MET A   3      15.195  15.434  -8.191  0.00  0.00    +0.069 C 
ENDBRANCH  65  66
ENDBRANCH  64  65
ENDBRANCH  46  64
ENDBRANCH  42  46
ENDBRANCH  41  43
BRANCH  41  68
ATOM     68  CB  SER A   4      21.422  11.845  -3.646  0.00  0.00    +0.166 C 
BRANCH  68  69
ATOM     69  OG  SER A   4      21.980  11.764  -2.339  0.00  0.00    -0.380 OA
ATOM     70  H   SER A   4      21.303  11.403  -1.714  0.00  0.00    +0.211 HD
ENDBRANCH  68  69
ENDBRANCH  41  68
ENDBRANCH  37  41
ENDBRANCH  36  38
BRANCH  36  71
ATOM     71  CB  SER A   5      20.334  15.527   0.341  0.00  0.00    +0.166 C 
BRANCH  71  72
ATOM     72  OG  SER A   5      20.770  14.410   1.090  0.00  0.00    -0.380 OA
ATOM     73  H   SER A   5      20.456  13.579   0.654  0.00  0.00    +0.211 HD
ENDBRANCH  71  72
ENDBRANCH  36  71
ENDBRANCH  32  36
ENDBRANCH   1  34
BRANCH   1  74
ATOM     74  CB  ARG A   6      25.056  13.023  -0.637  0.00  0.00    +0.033 C 
BRANCH  74  75
ATOM     75  CG  ARG A   6      24.476  12.842   0.779  0.00  0.00    +0.045 C 
BRANCH  75  76
ATOM     76  CD  ARG A   6      25.465  12.240   1.807  0.00  0.00    +0.174 C 
BRANCH  76  77
ATOM     77  NE  ARG A   6      26.622  11.537   1.232  0.00  0.00    -0.265 N 
ATOM     78  CZ  ARG A   6      27.618  11.017   1.953  0.00  0.00    +0.342 C 
ATOM     79  NH2 ARG A   6      27.602  11.104   3.280  0.00  0.00    -0.292 N 
ATOM     80 HH21 ARG A   6      28.380  10.697   3.837  0.00  0.00    +0.255 HD
ATOM     81 HH22 ARG A   6      26.811  11.579   3.760  0.00  0.00    +0.255 HD
ATOM     82  NH1 ARG A   6      28.640  10.406   1.357  0.00  0.00    -0.292 N 
ATOM     83 HH11 ARG A   6      29.411  10.004   1.928  0.00  0.00    +0.255 HD
ATOM     84 HH12 ARG A   6      28.668  10.330   0.320  0.00  0.00    +0.255 HD
ATOM     85  HE  ARG A   6      26.667  11.439   0.198  0.00  0.00    +0.259 HD
ENDBRANCH  76  77
ENDBRANCH  75  76
ENDBRANCH  74  75
ENDBRANCH   1  74
TORSDOF 35
REMARK  Name = ../refined-set-2016/3iue/3iue_pocket.pdb
REMARK  215 active torsions:
REMARK  status: ('A' for Active; 'I' for Inactive)
REMARK    1  A    between atoms: _1  and  _3
REMARK    2  A    between atoms: _3  and  _4
REMARK    3  A    between atoms: _3  and  _6
REMARK    4  A    between atoms: _10  and  _11
REMARK    5  A    between atoms: _16  and  _18
REMARK    6  A    between atoms: _18  and  _19
REMARK    7  A    between atoms: _18  and  _21
REMARK    8  A    between atoms: _21  and  _22
REMARK    9  A    between atoms: _25  and  _27
REMARK   10  A    between atoms: _27  and  _28
REMARK   11  A    between atoms: _27  and  _30
REMARK   12  A    between atoms: _30  and  _31
REMARK   13  A    between atoms: _31  and  _32
REMARK   14  A    between atoms: _34  and  _36
REMARK   15  A    between atoms: _36  and  _37
REMARK   16  A    between atoms: _39  and  _41
REMARK   17  A    between atoms: _41  and  _42
REMARK   18  A    between atoms: _45  and  _47
REMARK   19  A    between atoms: _47  and  _48
REMARK   20  A    between atoms: _47  and  _50
REMARK   21  A    between atoms: _50  and  _51
REMARK   22  A    between atoms: _54  and  _56
REMARK   23  A    between atoms: _56  and  _57
REMARK   24  A    between atoms: _56  and  _59
REMARK   25  A    between atoms: _59  and  _60
REMARK   26  A    between atoms: _65  and  _67
REMARK   27  A    between atoms: _67  and  _68
REMARK   28  A    between atoms: _67  and  _70
REMARK   29  A    between atoms: _70  and  _71
REMARK   30  A    between atoms: _71  and  _72
REMARK   31  A    between atoms: _75  and  _77
REMARK   32  A    between atoms: _77  and  _78
REMARK   33  A    between atoms: _80  and  _82
REMARK   34  A    between atoms: _82  and  _83
REMARK   35  A    between atoms: _82  and  _85
REMARK   36  A    between atoms: _85  and  _86
REMARK   37  A    between atoms: _91  and  _93
REMARK   38  A    between atoms: _93  and  _94
REMARK   39  A    between atoms: _93  and  _96
REMARK   40  A    between atoms: _96  and  _97
REMARK   41  A    between atoms: _100  and  _102
REMARK   42  A    between atoms: _102  and  _103
REMARK   43  A    between atoms: _106  and  _108
REMARK   44  A    between atoms: _108  and  _109
REMARK   45  A    between atoms: _108  and  _111
REMARK   46  A    between atoms: _111  and  _112
REMARK   47  A    between atoms: _115  and  _117
REMARK   48  A    between atoms: _117  and  _118
REMARK   49  A    between atoms: _117  and  _120
REMARK   50  A    between atoms: _123  and  _125
REMARK   51  A    between atoms: _125  and  _126
REMARK   52  A    between atoms: _125  and  _128
REMARK   53  A    between atoms: _128  and  _129
REMARK   54  A    between atoms: _131  and  _133
REMARK   55  A    between atoms: _133  and  _134
REMARK   56  A    between atoms: _133  and  _136
REMARK   57  A    between atoms: _136  and  _137
REMARK   58  A    between atoms: _140  and  _142
REMARK   59  A    between atoms: _142  and  _143
REMARK   60  A    between atoms: _142  and  _145
REMARK   61  A    between atoms: _145  and  _146
REMARK   62  A    between atoms: _152  and  _154
REMARK   63  A    between atoms: _154  and  _155
REMARK   64  A    between atoms: _154  and  _157
REMARK   65  A    between atoms: _157  and  _158
REMARK   66  A    between atoms: _163  and  _165
REMARK   67  A    between atoms: _165  and  _166
REMARK   68  A    between atoms: _165  and  _168
REMARK   69  A    between atoms: _168  and  _169
REMARK   70  A    between atoms: _169  and  _170
REMARK   71  A    between atoms: _175  and  _177
REMARK   72  A    between atoms: _177  and  _178
REMARK   73  A    between atoms: _177  and  _180
REMARK   74  A    between atoms: _180  and  _181
REMARK   75  A    between atoms: _187  and  _189
REMARK   76  A    between atoms: _189  and  _190
REMARK   77  A    between atoms: _189  and  _192
REMARK   78  A    between atoms: _192  and  _193
REMARK   79  A    between atoms: _198  and  _199
REMARK   80  A    between atoms: _202  and  _203
REMARK   81  A    between atoms: _208  and  _210
REMARK   82  A    between atoms: _210  and  _211
REMARK   83  A    between atoms: _210  and  _213
REMARK   84  A    between atoms: _213  and  _214
REMARK   85  A    between atoms: _214  and  _215
REMARK   86  A    between atoms: _218  and  _220
REMARK   87  A    between atoms: _220  and  _221
REMARK   88  A    between atoms: _220  and  _223
REMARK   89  A    between atoms: _223  and  _224
REMARK   90  A    between atoms: _229  and  _231
REMARK   91  A    between atoms: _231  and  _232
REMARK   92  A    between atoms: _231  and  _234
REMARK   93  A    between atoms: _234  and  _235
REMARK   94  A    between atoms: _241  and  _243
REMARK   95  A    between atoms: _243  and  _244
REMARK   96  A    between atoms: _243  and  _246
REMARK   97  A    between atoms: _249  and  _251
REMARK   98  A    between atoms: _251  and  _252
REMARK   99  A    between atoms: _251  and  _254
REMARK  100  A    between atoms: _257  and  _259
REMARK  101  A    between atoms: _259  and  _260
REMARK  102  A    between atoms: _259  and  _262
REMARK  103  A    between atoms: _262  and  _263
REMARK  104  A    between atoms: _269  and  _271
REMARK  105  A    between atoms: _271  and  _272
REMARK  106  A    between atoms: _271  and  _274
REMARK  107  A    between atoms: _274  and  _275
REMARK  108  A    between atoms: _281  and  _283
REMARK  109  A    between atoms: _283  and  _284
REMARK  110  A    between atoms: _286  and  _288
REMARK  111  A    between atoms: _288  and  _289
REMARK  112  A    between atoms: _288  and  _291
REMARK  113  A    between atoms: _291  and  _292
REMARK  114  A    between atoms: _292  and  _293
REMARK  115  A    between atoms: _296  and  _298
REMARK  116  A    between atoms: _298  and  _299
REMARK  117  A    between atoms: _298  and  _301
REMARK  118  A    between atoms: _301  and  _302
REMARK  119  A    between atoms: _302  and  _303
REMARK  120  A    between atoms: _303  and  _304
REMARK  121  A    between atoms: _304  and  _305
REMARK  122  A    between atoms: _309  and  _311
REMARK  123  A    between atoms: _311  and  _312
REMARK  124  A    between atoms: _311  and  _314
REMARK  125  A    between atoms: _314  and  _315
REMARK  126  A    between atoms: _318  and  _320
REMARK  127  A    between atoms: _320  and  _321
REMARK  128  A    between atoms: _320  and  _323
REMARK  129  A    between atoms: _323  and  _324
REMARK  130  A    between atoms: _329  and  _330
REMARK  131  A    between atoms: _332  and  _334
REMARK  132  A    between atoms: _334  and  _335
REMARK  133  A    between atoms: _334  and  _337
REMARK  134  A    between atoms: _337  and  _338
REMARK  135  A    between atoms: _338  and  _339
REMARK  136  A    between atoms: _344  and  _346
REMARK  137  A    between atoms: _346  and  _347
REMARK  138  A    between atoms: _346  and  _349
REMARK  139  A    between atoms: _349  and  _350
REMARK  140  A    between atoms: _353  and  _355
REMARK  141  A    between atoms: _355  and  _356
REMARK  142  A    between atoms: _355  and  _358
REMARK  143  A    between atoms: _358  and  _359
REMARK  144  A    between atoms: _362  and  _364
REMARK  145  A    between atoms: _364  and  _365
REMARK  146  A    between atoms: _367  and  _369
REMARK  147  A    between atoms: _369  and  _370
REMARK  148  A    between atoms: _369  and  _372
REMARK  149  A    between atoms: _376  and  _377
REMARK  150  A    between atoms: _382  and  _384
REMARK  151  A    between atoms: _384  and  _385
REMARK  152  A    between atoms: _384  and  _387
REMARK  153  A    between atoms: _387  and  _388
REMARK  154  A    between atoms: _391  and  _393
REMARK  155  A    between atoms: _393  and  _394
REMARK  156  A    between atoms: _393  and  _396
REMARK  157  A    between atoms: _399  and  _401
REMARK  158  A    between atoms: _401  and  _402
REMARK  159  A    between atoms: _401  and  _404
REMARK  160  A    between atoms: _404  and  _405
REMARK  161  A    between atoms: _405  and  _406
REMARK  162  A    between atoms: _406  and  _407
REMARK  163  A    between atoms: _416  and  _418
REMARK  164  A    between atoms: _418  and  _419
REMARK  165  A    between atoms: _418  and  _421
REMARK  166  A    between atoms: _421  and  _422
REMARK  167  A    between atoms: _425  and  _427
REMARK  168  A    between atoms: _427  and  _428
REMARK  169  A    between atoms: _431  and  _433
REMARK  170  A    between atoms: _433  and  _434
REMARK  171  A    between atoms: _433  and  _436
REMARK  172  A    between atoms: _436  and  _437
REMARK  173  A    between atoms: _437  and  _438
REMARK  174  A    between atoms: _440  and  _442
REMARK  175  A    between atoms: _442  and  _443
REMARK  176  A    between atoms: _442  and  _445
REMARK  177  A    between atoms: _445  and  _446
REMARK  178  A    between atoms: _448  and  _450
REMARK  179  A    between atoms: _450  and  _451
REMARK  180  A    between atoms: _450  and  _453
REMARK  181  A    between atoms: _453  and  _454
REMARK  182  A    between atoms: _456  and  _458
REMARK  183  A    between atoms: _458  and  _459
REMARK  184  A    between atoms: _458  and  _461
REMARK  185  A    between atoms: _461  and  _462
REMARK  186  A    between atoms: _462  and  _463
REMARK  187  A    between atoms: _463  and  _464
REMARK  188  A    between atoms: _473  and  _475
REMARK  189  A    between atoms: _475  and  _476
REMARK  190  A    between atoms: _475  and  _478
REMARK  191  A    between atoms: _478  and  _479
REMARK  192  A    between atoms: _484  and  _486
REMARK  193  A    between atoms: _486  and  _487
REMARK  194  A    between atoms: _486  and  _489
REMARK  195  A    between atoms: _489  and  _490
REMARK  196  A    between atoms: _490  and  _491
REMARK  197  A    between atoms: _491  and  _492
REMARK  198  A    between atoms: _501  and  _503
REMARK  199  A    between atoms: _503  and  _504
REMARK  200  A    between atoms: _503  and  _506
REMARK  201  A    between atoms: _506  and  _507
REMARK  202  A    between atoms: _507  and  _508
REMARK  203  A    between atoms: _508  and  _509
REMARK  204  A    between atoms: _518  and  _520
REMARK  205  A    between atoms: _520  and  _521
REMARK  206  A    between atoms: _520  and  _523
REMARK  207  A    between atoms: _523  and  _524
REMARK  208  A    between atoms: _527  and  _529
REMARK  209  A    between atoms: _529  and  _530
REMARK  210  A    between atoms: _529  and  _532
REMARK  211  A    between atoms: _532  and  _533
REMARK  212  A    between atoms: _536  and  _538
REMARK  213  A    between atoms: _538  and  _539
REMARK  214  A    between atoms: _538  and  _541
REMARK  215  A    between atoms: _541  and  _542
REMARK                            x       y       z     vdW  Elec       q    Type
REMARK                         _______ _______ _______ _____ _____    ______ ____
ROOT
ATOM      1  C   ARG A   1      27.777   7.714  -1.924  0.00  0.00    +0.238 C 
ATOM      2  O   ARG A   1      26.932   8.453  -1.416  0.00  0.00    -0.274 OA
ATOM      3  N   LEU A   2      27.596   7.081  -3.077  0.00  0.00    -0.297 N 
ATOM      4  H   LEU A   2      28.391   6.554  -3.491  0.00  0.00    +0.150 HD
ENDROOT
BRANCH   1   5
ATOM      5  CA  ARG A   1      29.151   7.555  -1.278  0.00  0.00    +0.145 C 
BRANCH   5   6
ATOM      6  N   ARG A   1      29.677   8.886  -1.075  0.00  0.00    -0.238 NA
ATOM      7  H   ARG A   1      29.409   9.418  -0.222  0.00  0.00    +0.142 HD
ENDBRANCH   5   6
BRANCH   5   8
ATOM      8  CB  ARG A   1      29.041   6.828   0.041  0.00  0.00    +0.030 C 
BRANCH   8   9
ATOM      9  CG  ARG A   1      29.404   5.390  -0.101  0.00  0.00    +0.045 C 
BRANCH   9  10
ATOM     10  CD  ARG A   1      29.747   4.748   1.235  0.00  0.00    +0.174 C 
BRANCH  10  11
ATOM     11  NE  ARG A   1      29.298   3.366   1.138  0.00  0.00    -0.265 N 
ATOM     12  CZ  ARG A   1      28.055   2.980   1.400  0.00  0.00    +0.342 C 
ATOM     13  NH2 ARG A   1      27.170   3.867   1.849  0.00  0.00    -0.292 N 
ATOM     14 HH21 ARG A   1      26.195   3.570   2.056  0.00  0.00    +0.255 HD
ATOM     15 HH22 ARG A   1      27.453   4.857   1.993  0.00  0.00    +0.255 HD
ATOM     16  NH1 ARG A   1      27.725   1.704   1.260  0.00  0.00    -0.292 N 
ATOM     17 HH11 ARG A   1      26.754   1.393   1.463  0.00  0.00    +0.255 HD
ATOM     18 HH12 ARG A   1      28.437   1.014   0.947  0.00  0.00    +0.255 HD
ATOM     19  HE  ARG A   1      29.987   2.643   0.848  0.00  0.00    +0.259 HD
ENDBRANCH  10  11
ENDBRANCH   9  10
ENDBRANCH   8   9
ENDBRANCH   5   8
ENDBRANCH   1   5
BRANCH   3  20
ATOM     20  CA  LEU A   2      26.304   7.100  -3.791  0.00  0.00    +0.149 C 
BRANCH  20  21
ATOM     21  C   LEU A   2      25.670   5.717  -3.778  0.00  0.00    +0.241 C 
ATOM     22  N   LEU A   3      24.335   5.670  -3.701  0.00  0.00    -0.298 N 
ATOM     23  H   LEU A   3      23.806   6.558  -3.581  0.00  0.00    +0.150 HD
ATOM     24  O   LEU A   2      26.374   4.717  -3.856  0.00  0.00    -0.273 OA
BRANCH  22  25
ATOM     25  CA  LEU A   3      23.595   4.411  -3.780  0.00  0.00    +0.137 C 
BRANCH  25  26
ATOM     26  C   LEU A   3      22.621   4.463  -4.959  0.00  0.00    +0.227 C 
ATOM     27  O   LEU A   3      22.112   5.529  -5.291  0.00  0.00    -0.286 OA
ENDBRANCH  25  26
BRANCH  25  28
ATOM     28  CB  LEU A   3      22.750   4.180  -2.522  0.00  0.00    +0.028 C 
BRANCH  28  29
ATOM     29  CG  LEU A   3      23.331   4.246  -1.108  0.00  0.00    +0.002 C 
ATOM     30  CD2 LEU A   3      22.400   3.425  -0.203  0.00  0.00    +0.000 C 
ATOM     31  CD1 LEU A   3      24.715   3.715  -1.076  0.00  0.00    +0.000 C 
ENDBRANCH  28  29
ENDBRANCH  25  28
ENDBRANCH  22  25
ENDBRANCH  20  21
BRANCH  20  32
ATOM     32  CB  LEU A   2      26.486   7.565  -5.254  0.00  0.00    +0.029 C 
BRANCH  32  33
ATOM     33  CG  LEU A   2      27.144   8.935  -5.516  0.00  0.00    +0.002 C 
ATOM     34  CD2 LEU A   2      26.345  10.037  -4.831  0.00  0.00    +0.000 C 
ATOM     35  CD1 LEU A   2      27.203   9.191  -7.004  0.00  0.00    +0.000 C 
ENDBRANCH  32  33
ENDBRANCH  20  32
ENDBRANCH   3  20
TORSDOF 14
REMARK  Name = ../refined-set-2016/3iue/3iue_pocket.pdb
REMARK  215 active torsions:
REMARK  status: ('A' for Active; 'I' for Inactive)
REMARK    1  A    between atoms: _1  and  _3
REMARK    2  A    between atoms: _3  and  _4
REMARK    3  A    between atoms: _3  and  _6
REMARK    4  A    between atoms: _10  and  _11
REMARK    5  A    between atoms: _16  and  _18
REMARK    6  A    between atoms: _18  and  _19
REMARK    7  A    between atoms: _18  and  _21
REMARK    8  A    between atoms: _21  and  _22
REMARK    9  A    between atoms: _25  and  _27
REMARK   10  A    between atoms: _27  and  _28
REMARK   11  A    between atoms: _27  and  _30
REMARK   12  A    between atoms: _30  and  _31
REMARK   13  A    between atoms: _31  and  _32
REMARK   14  A    between atoms: _34  and  _36
REMARK   15  A    between atoms: _36  and  _37
REMARK   16  A    between atoms: _39  and  _41
REMARK   17  A    between atoms: _41  and  _42
REMARK   18  A    between atoms: _45  and  _47
REMARK   19  A    between atoms: _47  and  _48
REMARK   20  A    between atoms: _47  and  _50
REMARK   21  A    between atoms: _50  and  _51
REMARK   22  A    between atoms: _54  and  _56
REMARK   23  A    between atoms: _56  and  _57
REMARK   24  A    between atoms: _56  and  _59
REMARK   25  A    between atoms: _59  and  _60
REMARK   26  A    between atoms: _65  and  _67
REMARK   27  A    between atoms: _67  and  _68
REMARK   28  A    between atoms: _67  and  _70
REMARK   29  A    between atoms: _70  and  _71
REMARK   30  A    between atoms: _71  and  _72
REMARK   31  A    between atoms: _75  and  _77
REMARK   32  A    between atoms: _77  and  _78
REMARK   33  A    between atoms: _80  and  _82
REMARK   34  A    between atoms: _82  and  _83
REMARK   35  A    between atoms: _82  and  _85
REMARK   36  A    between atoms: _85  and  _86
REMARK   37  A    between atoms: _91  and  _93
REMARK   38  A    between atoms: _93  and  _94
REMARK   39  A    between atoms: _93  and  _96
REMARK   40  A    between atoms: _96  and  _97
REMARK   41  A    between atoms: _100  and  _102
REMARK   42  A    between atoms: _102  and  _103
REMARK   43  A    between atoms: _106  and  _108
REMARK   44  A    between atoms: _108  and  _109
REMARK   45  A    between atoms: _108  and  _111
REMARK   46  A    between atoms: _111  and  _112
REMARK   47  A    between atoms: _115  and  _117
REMARK   48  A    between atoms: _117  and  _118
REMARK   49  A    between atoms: _117  and  _120
REMARK   50  A    between atoms: _123  and  _125
REMARK   51  A    between atoms: _125  and  _126
REMARK   52  A    between atoms: _125  and  _128
REMARK   53  A    between atoms: _128  and  _129
REMARK   54  A    between atoms: _131  and  _133
REMARK   55  A    between atoms: _133  and  _134
REMARK   56  A    between atoms: _133  and  _136
REMARK   57  A    between atoms: _136  and  _137
REMARK   58  A    between atoms: _140  and  _142
REMARK   59  A    between atoms: _142  and  _143
REMARK   60  A    between atoms: _142  and  _145
REMARK   61  A    between atoms: _145  and  _146
REMARK   62  A    between atoms: _152  and  _154
REMARK   63  A    between atoms: _154  and  _155
REMARK   64  A    between atoms: _154  and  _157
REMARK   65  A    between atoms: _157  and  _158
REMARK   66  A    between atoms: _163  and  _165
REMARK   67  A    between atoms: _165  and  _166
REMARK   68  A    between atoms: _165  and  _168
REMARK   69  A    between atoms: _168  and  _169
REMARK   70  A    between atoms: _169  and  _170
REMARK   71  A    between atoms: _175  and  _177
REMARK   72  A    between atoms: _177  and  _178
REMARK   73  A    between atoms: _177  and  _180
REMARK   74  A    between atoms: _180  and  _181
REMARK   75  A    between atoms: _187  and  _189
REMARK   76  A    between atoms: _189  and  _190
REMARK   77  A    between atoms: _189  and  _192
REMARK   78  A    between atoms: _192  and  _193
REMARK   79  A    between atoms: _198  and  _199
REMARK   80  A    between atoms: _202  and  _203
REMARK   81  A    between atoms: _208  and  _210
REMARK   82  A    between atoms: _210  and  _211
REMARK   83  A    between atoms: _210  and  _213
REMARK   84  A    between atoms: _213  and  _214
REMARK   85  A    between atoms: _214  and  _215
REMARK   86  A    between atoms: _218  and  _220
REMARK   87  A    between atoms: _220  and  _221
REMARK   88  A    between atoms: _220  and  _223
REMARK   89  A    between atoms: _223  and  _224
REMARK   90  A    between atoms: _229  and  _231
REMARK   91  A    between atoms: _231  and  _232
REMARK   92  A    between atoms: _231  and  _234
REMARK   93  A    between atoms: _234  and  _235
REMARK   94  A    between atoms: _241  and  _243
REMARK   95  A    between atoms: _243  and  _244
REMARK   96  A    between atoms: _243  and  _246
REMARK   97  A    between atoms: _249  and  _251
REMARK   98  A    between atoms: _251  and  _252
REMARK   99  A    between atoms: _251  and  _254
REMARK  100  A    between atoms: _257  and  _259
REMARK  101  A    between atoms: _259  and  _260
REMARK  102  A    between atoms: _259  and  _262
REMARK  103  A    between atoms: _262  and  _263
REMARK  104  A    between atoms: _269  and  _271
REMARK  105  A    between atoms: _271  and  _272
REMARK  106  A    between atoms: _271  and  _274
REMARK  107  A    between atoms: _274  and  _275
REMARK  108  A    between atoms: _281  and  _283
REMARK  109  A    between atoms: _283  and  _284
REMARK  110  A    between atoms: _286  and  _288
REMARK  111  A    between atoms: _288  and  _289
REMARK  112  A    between atoms: _288  and  _291
REMARK  113  A    between atoms: _291  and  _292
REMARK  114  A    between atoms: _292  and  _293
REMARK  115  A    between atoms: _296  and  _298
REMARK  116  A    between atoms: _298  and  _299
REMARK  117  A    between atoms: _298  and  _301
REMARK  118  A    between atoms: _301  and  _302
REMARK  119  A    between atoms: _302  and  _303
REMARK  120  A    between atoms: _303  and  _304
REMARK  121  A    between atoms: _304  and  _305
REMARK  122  A    between atoms: _309  and  _311
REMARK  123  A    between atoms: _311  and  _312
REMARK  124  A    between atoms: _311  and  _314
REMARK  125  A    between atoms: _314  and  _315
REMARK  126  A    between atoms: _318  and  _320
REMARK  127  A    between atoms: _320  and  _321
REMARK  128  A    between atoms: _320  and  _323
REMARK  129  A    between atoms: _323  and  _324
REMARK  130  A    between atoms: _329  and  _330
REMARK  131  A    between atoms: _332  and  _334
REMARK  132  A    between atoms: _334  and  _335
REMARK  133  A    between atoms: _334  and  _337
REMARK  134  A    between atoms: _337  and  _338
REMARK  135  A    between atoms: _338  and  _339
REMARK  136  A    between atoms: _344  and  _346
REMARK  137  A    between atoms: _346  and  _347
REMARK  138  A    between atoms: _346  and  _349
REMARK  139  A    between atoms: _349  and  _350
REMARK  140  A    between atoms: _353  and  _355
REMARK  141  A    between atoms: _355  and  _356
REMARK  142  A    between atoms: _355  and  _358
REMARK  143  A    between atoms: _358  and  _359
REMARK  144  A    between atoms: _362  and  _364
REMARK  145  A    between atoms: _364  and  _365
REMARK  146  A    between atoms: _367  and  _369
REMARK  147  A    between atoms: _369  and  _370
REMARK  148  A    between atoms: _369  and  _372
REMARK  149  A    between atoms: _376  and  _377
REMARK  150  A    between atoms: _382  and  _384
REMARK  151  A    between atoms: _384  and  _385
REMARK  152  A    between atoms: _384  and  _387
REMARK  153  A    between atoms: _387  and  _388
REMARK  154  A    between atoms: _391  and  _393
REMARK  155  A    between atoms: _393  and  _394
REMARK  156  A    between atoms: _393  and  _396
REMARK  157  A    between atoms: _399  and  _401
REMARK  158  A    between atoms: _401  and  _402
REMARK  159  A    between atoms: _401  and  _404
REMARK  160  A    between atoms: _404  and  _405
REMARK  161  A    between atoms: _405  and  _406
REMARK  162  A    between atoms: _406  and  _407
REMARK  163  A    between atoms: _416  and  _418
REMARK  164  A    between atoms: _418  and  _419
REMARK  165  A    between atoms: _418  and  _421
REMARK  166  A    between atoms: _421  and  _422
REMARK  167  A    between atoms: _425  and  _427
REMARK  168  A    between atoms: _427  and  _428
REMARK  169  A    between atoms: _431  and  _433
REMARK  170  A    between atoms: _433  and  _434
REMARK  171  A    between atoms: _433  and  _436
REMARK  172  A    between atoms: _436  and  _437
REMARK  173  A    between atoms: _437  and  _438
REMARK  174  A    between atoms: _440  and  _442
REMARK  175  A    between atoms: _442  and  _443
REMARK  176  A    between atoms: _442  and  _445
REMARK  177  A    between atoms: _445  and  _446
REMARK  178  A    between atoms: _448  and  _450
REMARK  179  A    between atoms: _450  and  _451
REMARK  180  A    between atoms: _450  and  _453
REMARK  181  A    between atoms: _453  and  _454
REMARK  182  A    between atoms: _456  and  _458
REMARK  183  A    between atoms: _458  and  _459
REMARK  184  A    between atoms: _458  and  _461
REMARK  185  A    between atoms: _461  and  _462
REMARK  186  A    between atoms: _462  and  _463
REMARK  187  A    between atoms: _463  and  _464
REMARK  188  A    between atoms: _473  and  _475
REMARK  189  A    between atoms: _475  and  _476
REMARK  190  A    between atoms: _475  and  _478
REMARK  191  A    between atoms: _478  and  _479
REMARK  192  A    between atoms: _484  and  _486
REMARK  193  A    between atoms: _486  and  _487
REMARK  194  A    between atoms: _486  and  _489
REMARK  195  A    between atoms: _489  and  _490
REMARK  196  A    between atoms: _490  and  _491
REMARK  197  A    between atoms: _491  and  _492
REMARK  198  A    between atoms: _501  and  _503
REMARK  199  A    between atoms: _503  and  _504
REMARK  200  A    between atoms: _503  and  _506
REMARK  201  A    between atoms: _506  and  _507
REMARK  202  A    between atoms: _507  and  _508
REMARK  203  A    between atoms: _508  and  _509
REMARK  204  A    between atoms: _518  and  _520
REMARK  205  A    between atoms: _520  and  _521
REMARK  206  A    between atoms: _520  and  _523
REMARK  207  A    between atoms: _523  and  _524
REMARK  208  A    between atoms: _527  and  _529
REMARK  209  A    between atoms: _529  and  _530
REMARK  210  A    between atoms: _529  and  _532
REMARK  211  A    between atoms: _532  and  _533
REMARK  212  A    between atoms: _536  and  _538
REMARK  213  A    between atoms: _538  and  _539
REMARK  214  A    between atoms: _538  and  _541
REMARK  215  A    between atoms: _541  and  _542
REMARK                            x       y       z     vdW  Elec       q    Type
REMARK                         _______ _______ _______ _____ _____    ______ ____
ROOT
ATOM      1  CB  ASN A   1      18.419  -0.251  -5.843  0.00  0.00    +0.110 C 
ENDROOT
BRANCH   1   2
ATOM      2  CG  ASN A   1      17.180   0.548  -5.470  0.00  0.00    +0.221 C 
ATOM      3  ND2 ASN A   1      17.360   1.616  -4.699  0.00  0.00    -0.329 N 
ATOM      4 HD21 ASN A   1      18.311   1.853  -4.352  0.00  0.00    +0.145 HD
ATOM      5 HD22 ASN A   1      16.549   2.215  -4.443  0.00  0.00    +0.145 HD
ATOM      6  OD1 ASN A   1      16.075   0.218  -5.911  0.00  0.00    -0.275 OA
ENDBRANCH   1   2
BRANCH   1   7
ATOM      7  CA  ASN A   1      19.005   0.197  -7.179  0.00  0.00    +0.142 C 
BRANCH   7   8
ATOM      8  N   ASN A   1      19.533   1.560  -7.046  0.00  0.00    -0.239 NA
ATOM      9  H   ASN A   1      18.959   2.366  -7.367  0.00  0.00    +0.142 HD
ENDBRANCH   7   8
BRANCH   7  10
ATOM     10  C   ASN A   1      17.941   0.166  -8.274  0.00  0.00    +0.225 C 
ATOM     11  O   ASN A   1      17.386   1.208  -8.652  0.00  0.00    -0.287 OA
ENDBRANCH   7  10
ENDBRANCH   1   7
TORSDOF 4
REMARK  Name = ../refined-set-2016/3iue/3iue_pocket.pdb
REMARK  215 active torsions:
REMARK  status: ('A' for Active; 'I' for Inactive)
REMARK    1  A    between atoms: _1  and  _3
REMARK    2  A    between atoms: _3  and  _4
REMARK    3  A    between atoms: _3  and  _6
REMARK    4  A    between atoms: _10  and  _11
REMARK    5  A    between atoms: _16  and  _18
REMARK    6  A    between atoms: _18  and  _19
REMARK    7  A    between atoms: _18  and  _21
REMARK    8  A    between atoms: _21  and  _22
REMARK    9  A    between atoms: _25  and  _27
REMARK   10  A    between atoms: _27  and  _28
REMARK   11  A    between atoms: _27  and  _30
REMARK   12  A    between atoms: _30  and  _31
REMARK   13  A    between atoms: _31  and  _32
REMARK   14  A    between atoms: _34  and  _36
REMARK   15  A    between atoms: _36  and  _37
REMARK   16  A    between atoms: _39  and  _41
REMARK   17  A    between atoms: _41  and  _42
REMARK   18  A    between atoms: _45  and  _47
REMARK   19  A    between atoms: _47  and  _48
REMARK   20  A    between atoms: _47  and  _50
REMARK   21  A    between atoms: _50  and  _51
REMARK   22  A    between atoms: _54  and  _56
REMARK   23  A    between atoms: _56  and  _57
REMARK   24  A    between atoms: _56  and  _59
REMARK   25  A    between atoms: _59  and  _60
REMARK   26  A    between atoms: _65  and  _67
REMARK   27  A    between atoms: _67  and  _68
REMARK   28  A    between atoms: _67  and  _70
REMARK   29  A    between atoms: _70  and  _71
REMARK   30  A    between atoms: _71  and  _72
REMARK   31  A    between atoms: _75  and  _77
REMARK   32  A    between atoms: _77  and  _78
REMARK   33  A    between atoms: _80  and  _82
REMARK   34  A    between atoms: _82  and  _83
REMARK   35  A    between atoms: _82  and  _85
REMARK   36  A    between atoms: _85  and  _86
REMARK   37  A    between atoms: _91  and  _93
REMARK   38  A    between atoms: _93  and  _94
REMARK   39  A    between atoms: _93  and  _96
REMARK   40  A    between atoms: _96  and  _97
REMARK   41  A    between atoms: _100  and  _102
REMARK   42  A    between atoms: _102  and  _103
REMARK   43  A    between atoms: _106  and  _108
REMARK   44  A    between atoms: _108  and  _109
REMARK   45  A    between atoms: _108  and  _111
REMARK   46  A    between atoms: _111  and  _112
REMARK   47  A    between atoms: _115  and  _117
REMARK   48  A    between atoms: _117  and  _118
REMARK   49  A    between atoms: _117  and  _120
REMARK   50  A    between atoms: _123  and  _125
REMARK   51  A    between atoms: _125  and  _126
REMARK   52  A    between atoms: _125  and  _128
REMARK   53  A    between atoms: _128  and  _129
REMARK   54  A    between atoms: _131  and  _133
REMARK   55  A    between atoms: _133  and  _134
REMARK   56  A    between atoms: _133  and  _136
REMARK   57  A    between atoms: _136  and  _137
REMARK   58  A    between atoms: _140  and  _142
REMARK   59  A    between atoms: _142  and  _143
REMARK   60  A    between atoms: _142  and  _145
REMARK   61  A    between atoms: _145  and  _146
REMARK   62  A    between atoms: _152  and  _154
REMARK   63  A    between atoms: _154  and  _155
REMARK   64  A    between atoms: _154  and  _157
REMARK   65  A    between atoms: _157  and  _158
REMARK   66  A    between atoms: _163  and  _165
REMARK   67  A    between atoms: _165  and  _166
REMARK   68  A    between atoms: _165  and  _168
REMARK   69  A    between atoms: _168  and  _169
REMARK   70  A    between atoms: _169  and  _170
REMARK   71  A    between atoms: _175  and  _177
REMARK   72  A    between atoms: _177  and  _178
REMARK   73  A    between atoms: _177  and  _180
REMARK   74  A    between atoms: _180  and  _181
REMARK   75  A    between atoms: _187  and  _189
REMARK   76  A    between atoms: _189  and  _190
REMARK   77  A    between atoms: _189  and  _192
REMARK   78  A    between atoms: _192  and  _193
REMARK   79  A    between atoms: _198  and  _199
REMARK   80  A    between atoms: _202  and  _203
REMARK   81  A    between atoms: _208  and  _210
REMARK   82  A    between atoms: _210  and  _211
REMARK   83  A    between atoms: _210  and  _213
REMARK   84  A    between atoms: _213  and  _214
REMARK   85  A    between atoms: _214  and  _215
REMARK   86  A    between atoms: _218  and  _220
REMARK   87  A    between atoms: _220  and  _221
REMARK   88  A    between atoms: _220  and  _223
REMARK   89  A    between atoms: _223  and  _224
REMARK   90  A    between atoms: _229  and  _231
REMARK   91  A    between atoms: _231  and  _232
REMARK   92  A    between atoms: _231  and  _234
REMARK   93  A    between atoms: _234  and  _235
REMARK   94  A    between atoms: _241  and  _243
REMARK   95  A    between atoms: _243  and  _244
REMARK   96  A    between atoms: _243  and  _246
REMARK   97  A    between atoms: _249  and  _251
REMARK   98  A    between atoms: _251  and  _252
REMARK   99  A    between atoms: _251  and  _254
REMARK  100  A    between atoms: _257  and  _259
REMARK  101  A    between atoms: _259  and  _260
REMARK  102  A    between atoms: _259  and  _262
REMARK  103  A    between atoms: _262  and  _263
REMARK  104  A    between atoms: _269  and  _271
REMARK  105  A    between atoms: _271  and  _272
REMARK  106  A    between atoms: _271  and  _274
REMARK  107  A    between atoms: _274  and  _275
REMARK  108  A    between atoms: _281  and  _283
REMARK  109  A    between atoms: _283  and  _284
REMARK  110  A    between atoms: _286  and  _288
REMARK  111  A    between atoms: _288  and  _289
REMARK  112  A    between atoms: _288  and  _291
REMARK  113  A    between atoms: _291  and  _292
REMARK  114  A    between atoms: _292  and  _293
REMARK  115  A    between atoms: _296  and  _298
REMARK  116  A    between atoms: _298  and  _299
REMARK  117  A    between atoms: _298  and  _301
REMARK  118  A    between atoms: _301  and  _302
REMARK  119  A    between atoms: _302  and  _303
REMARK  120  A    between atoms: _303  and  _304
REMARK  121  A    between atoms: _304  and  _305
REMARK  122  A    between atoms: _309  and  _311
REMARK  123  A    between atoms: _311  and  _312
REMARK  124  A    between atoms: _311  and  _314
REMARK  125  A    between atoms: _314  and  _315
REMARK  126  A    between atoms: _318  and  _320
REMARK  127  A    between atoms: _320  and  _321
REMARK  128  A    between atoms: _320  and  _323
REMARK  129  A    between atoms: _323  and  _324
REMARK  130  A    between atoms: _329  and  _330
REMARK  131  A    between atoms: _332  and  _334
REMARK  132  A    between atoms: _334  and  _335
REMARK  133  A    between atoms: _334  and  _337
REMARK  134  A    between atoms: _337  and  _338
REMARK  135  A    between atoms: _338  and  _339
REMARK  136  A    between atoms: _344  and  _346
REMARK  137  A    between atoms: _346  and  _347
REMARK  138  A    between atoms: _346  and  _349
REMARK  139  A    between atoms: _349  and  _350
REMARK  140  A    between atoms: _353  and  _355
REMARK  141  A    between atoms: _355  and  _356
REMARK  142  A    between atoms: _355  and  _358
REMARK  143  A    between atoms: _358  and  _359
REMARK  144  A    between atoms: _362  and  _364
REMARK  145  A    between atoms: _364  and  _365
REMARK  146  A    between atoms: _367  and  _369
REMARK  147  A    between atoms: _369  and  _370
REMARK  148  A    between atoms: _369  and  _372
REMARK  149  A    between atoms: _376  and  _377
REMARK  150  A    between atoms: _382  and  _384
REMARK  151  A    between atoms: _384  and  _385
REMARK  152  A    between atoms: _384  and  _387
REMARK  153  A    between atoms: _387  and  _388
REMARK  154  A    between atoms: _391  and  _393
REMARK  155  A    between atoms: _393  and  _394
REMARK  156  A    between atoms: _393  and  _396
REMARK  157  A    between atoms: _399  and  _401
REMARK  158  A    between atoms: _401  and  _402
REMARK  159  A    between atoms: _401  and  _404
REMARK  160  A    between atoms: _404  and  _405
REMARK  161  A    between atoms: _405  and  _406
REMARK  162  A    between atoms: _406  and  _407
REMARK  163  A    between atoms: _416  and  _418
REMARK  164  A    between atoms: _418  and  _419
REMARK  165  A    between atoms: _418  and  _421
REMARK  166  A    between atoms: _421  and  _422
REMARK  167  A    between atoms: _425  and  _427
REMARK  168  A    between atoms: _427  and  _428
REMARK  169  A    between atoms: _431  and  _433
REMARK  170  A    between atoms: _433  and  _434
REMARK  171  A    between atoms: _433  and  _436
REMARK  172  A    between atoms: _436  and  _437
REMARK  173  A    between atoms: _437  and  _438
REMARK  174  A    between atoms: _440  and  _442
REMARK  175  A    between atoms: _442  and  _443
REMARK  176  A    between atoms: _442  and  _445
REMARK  177  A    between atoms: _445  and  _446
REMARK  178  A    between atoms: _448  and  _450
REMARK  179  A    between atoms: _450  and  _451
REMARK  180  A    between atoms: _450  and  _453
REMARK  181  A    between atoms: _453  and  _454
REMARK  182  A    between atoms: _456  and  _458
REMARK  183  A    between atoms: _458  and  _459
REMARK  184  A    between atoms: _458  and  _461
REMARK  185  A    between atoms: _461  and  _462
REMARK  186  A    between atoms: _462  and  _463
REMARK  187  A    between atoms: _463  and  _464
REMARK  188  A    between atoms: _473  and  _475
REMARK  189  A    between atoms: _475  and  _476
REMARK  190  A    between atoms: _475  and  _478
REMARK  191  A    between atoms: _478  and  _479
REMARK  192  A    between atoms: _484  and  _486
REMARK  193  A    between atoms: _486  and  _487
REMARK  194  A    between atoms: _486  and  _489
REMARK  195  A    between atoms: _489  and  _490
REMARK  196  A    between atoms: _490  and  _491
REMARK  197  A    between atoms: _491  and  _492
REMARK  198  A    between atoms: _501  and  _503
REMARK  199  A    between atoms: _503  and  _504
REMARK  200  A    between atoms: _503  and  _506
REMARK  201  A    between atoms: _506  and  _507
REMARK  202  A    between atoms: _507  and  _508
REMARK  203  A    between atoms: _508  and  _509
REMARK  204  A    between atoms: _518  and  _520
REMARK  205  A    between atoms: _520  and  _521
REMARK  206  A    between atoms: _520  and  _523
REMARK  207  A    between atoms: _523  and  _524
REMARK  208  A    between atoms: _527  and  _529
REMARK  209  A    between atoms: _529  and  _530
REMARK  210  A    between atoms: _529  and  _532
REMARK  211  A    between atoms: _532  and  _533
REMARK  212  A    between atoms: _536  and  _538
REMARK  213  A    between atoms: _538  and  _539
REMARK  214  A    between atoms: _538  and  _541
REMARK  215  A    between atoms: _541  and  _542
REMARK                            x       y       z     vdW  Elec       q    Type
REMARK                         _______ _______ _______ _____ _____    ______ ____
ROOT
ATOM      1  O   HOH     1      18.827   1.900   2.091  0.00  0.00    +0.000 OA
ENDROOT
TORSDOF 0
REMARK  Name = ../refined-set-2016/3iue/3iue_pocket.pdb
REMARK  215 active torsions:
REMARK  status: ('A' for Active; 'I' for Inactive)
REMARK    1  A    between atoms: _1  and  _3
REMARK    2  A    between atoms: _3  and  _4
REMARK    3  A    between atoms: _3  and  _6
REMARK    4  A    between atoms: _10  and  _11
REMARK    5  A    between atoms: _16  and  _18
REMARK    6  A    between atoms: _18  and  _19
REMARK    7  A    between atoms: _18  and  _21
REMARK    8  A    between atoms: _21  and  _22
REMARK    9  A    between atoms: _25  and  _27
REMARK   10  A    between atoms: _27  and  _28
REMARK   11  A    between atoms: _27  and  _30
REMARK   12  A    between atoms: _30  and  _31
REMARK   13  A    between atoms: _31  and  _32
REMARK   14  A    between atoms: _34  and  _36
REMARK   15  A    between atoms: _36  and  _37
REMARK   16  A    between atoms: _39  and  _41
REMARK   17  A    between atoms: _41  and  _42
REMARK   18  A    between atoms: _45  and  _47
REMARK   19  A    between atoms: _47  and  _48
REMARK   20  A    between atoms: _47  and  _50
REMARK   21  A    between atoms: _50  and  _51
REMARK   22  A    between atoms: _54  and  _56
REMARK   23  A    between atoms: _56  and  _57
REMARK   24  A    between atoms: _56  and  _59
REMARK   25  A    between atoms: _59  and  _60
REMARK   26  A    between atoms: _65  and  _67
REMARK   27  A    between atoms: _67  and  _68
REMARK   28  A    between atoms: _67  and  _70
REMARK   29  A    between atoms: _70  and  _71
REMARK   30  A    between atoms: _71  and  _72
REMARK   31  A    between atoms: _75  and  _77
REMARK   32  A    between atoms: _77  and  _78
REMARK   33  A    between atoms: _80  and  _82
REMARK   34  A    between atoms: _82  and  _83
REMARK   35  A    between atoms: _82  and  _85
REMARK   36  A    between atoms: _85  and  _86
REMARK   37  A    between atoms: _91  and  _93
REMARK   38  A    between atoms: _93  and  _94
REMARK   39  A    between atoms: _93  and  _96
REMARK   40  A    between atoms: _96  and  _97
REMARK   41  A    between atoms: _100  and  _102
REMARK   42  A    between atoms: _102  and  _103
REMARK   43  A    between atoms: _106  and  _108
REMARK   44  A    between atoms: _108  and  _109
REMARK   45  A    between atoms: _108  and  _111
REMARK   46  A    between atoms: _111  and  _112
REMARK   47  A    between atoms: _115  and  _117
REMARK   48  A    between atoms: _117  and  _118
REMARK   49  A    between atoms: _117  and  _120
REMARK   50  A    between atoms: _123  and  _125
REMARK   51  A    between atoms: _125  and  _126
REMARK   52  A    between atoms: _125  and  _128
REMARK   53  A    between atoms: _128  and  _129
REMARK   54  A    between atoms: _131  and  _133
REMARK   55  A    between atoms: _133  and  _134
REMARK   56  A    between atoms: _133  and  _136
REMARK   57  A    between atoms: _136  and  _137
REMARK   58  A    between atoms: _140  and  _142
REMARK   59  A    between atoms: _142  and  _143
REMARK   60  A    between atoms: _142  and  _145
REMARK   61  A    between atoms: _145  and  _146
REMARK   62  A    between atoms: _152  and  _154
REMARK   63  A    between atoms: _154  and  _155
REMARK   64  A    between atoms: _154  and  _157
REMARK   65  A    between atoms: _157  and  _158
REMARK   66  A    between atoms: _163  and  _165
REMARK   67  A    between atoms: _165  and  _166
REMARK   68  A    between atoms: _165  and  _168
REMARK   69  A    between atoms: _168  and  _169
REMARK   70  A    between atoms: _169  and  _170
REMARK   71  A    between atoms: _175  and  _177
REMARK   72  A    between atoms: _177  and  _178
REMARK   73  A    between atoms: _177  and  _180
REMARK   74  A    between atoms: _180  and  _181
REMARK   75  A    between atoms: _187  and  _189
REMARK   76  A    between atoms: _189  and  _190
REMARK   77  A    between atoms: _189  and  _192
REMARK   78  A    between atoms: _192  and  _193
REMARK   79  A    between atoms: _198  and  _199
REMARK   80  A    between atoms: _202  and  _203
REMARK   81  A    between atoms: _208  and  _210
REMARK   82  A    between atoms: _210  and  _211
REMARK   83  A    between atoms: _210  and  _213
REMARK   84  A    between atoms: _213  and  _214
REMARK   85  A    between atoms: _214  and  _215
REMARK   86  A    between atoms: _218  and  _220
REMARK   87  A    between atoms: _220  and  _221
REMARK   88  A    between atoms: _220  and  _223
REMARK   89  A    between atoms: _223  and  _224
REMARK   90  A    between atoms: _229  and  _231
REMARK   91  A    between atoms: _231  and  _232
REMARK   92  A    between atoms: _231  and  _234
REMARK   93  A    between atoms: _234  and  _235
REMARK   94  A    between atoms: _241  and  _243
REMARK   95  A    between atoms: _243  and  _244
REMARK   96  A    between atoms: _243  and  _246
REMARK   97  A    between atoms: _249  and  _251
REMARK   98  A    between atoms: _251  and  _252
REMARK   99  A    between atoms: _251  and  _254
REMARK  100  A    between atoms: _257  and  _259
REMARK  101  A    between atoms: _259  and  _260
REMARK  102  A    between atoms: _259  and  _262
REMARK  103  A    between atoms: _262  and  _263
REMARK  104  A    between atoms: _269  and  _271
REMARK  105  A    between atoms: _271  and  _272
REMARK  106  A    between atoms: _271  and  _274
REMARK  107  A    between atoms: _274  and  _275
REMARK  108  A    between atoms: _281  and  _283
REMARK  109  A    between atoms: _283  and  _284
REMARK  110  A    between atoms: _286  and  _288
REMARK  111  A    between atoms: _288  and  _289
REMARK  112  A    between atoms: _288  and  _291
REMARK  113  A    between atoms: _291  and  _292
REMARK  114  A    between atoms: _292  and  _293
REMARK  115  A    between atoms: _296  and  _298
REMARK  116  A    between atoms: _298  and  _299
REMARK  117  A    between atoms: _298  and  _301
REMARK  118  A    between atoms: _301  and  _302
REMARK  119  A    between atoms: _302  and  _303
REMARK  120  A    between atoms: _303  and  _304
REMARK  121  A    between atoms: _304  and  _305
REMARK  122  A    between atoms: _309  and  _311
REMARK  123  A    between atoms: _311  and  _312
REMARK  124  A    between atoms: _311  and  _314
REMARK  125  A    between atoms: _314  and  _315
REMARK  126  A    between atoms: _318  and  _320
REMARK  127  A    between atoms: _320  and  _321
REMARK  128  A    between atoms: _320  and  _323
REMARK  129  A    between atoms: _323  and  _324
REMARK  130  A    between atoms: _329  and  _330
REMARK  131  A    between atoms: _332  and  _334
REMARK  132  A    between atoms: _334  and  _335
REMARK  133  A    between atoms: _334  and  _337
REMARK  134  A    between atoms: _337  and  _338
REMARK  135  A    between atoms: _338  and  _339
REMARK  136  A    between atoms: _344  and  _346
REMARK  137  A    between atoms: _346  and  _347
REMARK  138  A    between atoms: _346  and  _349
REMARK  139  A    between atoms: _349  and  _350
REMARK  140  A    between atoms: _353  and  _355
REMARK  141  A    between atoms: _355  and  _356
REMARK  142  A    between atoms: _355  and  _358
REMARK  143  A    between atoms: _358  and  _359
REMARK  144  A    between atoms: _362  and  _364
REMARK  145  A    between atoms: _364  and  _365
REMARK  146  A    between atoms: _367  and  _369
REMARK  147  A    between atoms: _369  and  _370
REMARK  148  A    between atoms: _369  and  _372
REMARK  149  A    between atoms: _376  and  _377
REMARK  150  A    between atoms: _382  and  _384
REMARK  151  A    between atoms: _384  and  _385
REMARK  152  A    between atoms: _384  and  _387
REMARK  153  A    between atoms: _387  and  _388
REMARK  154  A    between atoms: _391  and  _393
REMARK  155  A    between atoms: _393  and  _394
REMARK  156  A    between atoms: _393  and  _396
REMARK  157  A    between atoms: _399  and  _401
REMARK  158  A    between atoms: _401  and  _402
REMARK  159  A    between atoms: _401  and  _404
REMARK  160  A    between atoms: _404  and  _405
REMARK  161  A    between atoms: _405  and  _406
REMARK  162  A    between atoms: _406  and  _407
REMARK  163  A    between atoms: _416  and  _418
REMARK  164  A    between atoms: _418  and  _419
REMARK  165  A    between atoms: _418  and  _421
REMARK  166  A    between atoms: _421  and  _422
REMARK  167  A    between atoms: _425  and  _427
REMARK  168  A    between atoms: _427  and  _428
REMARK  169  A    between atoms: _431  and  _433
REMARK  170  A    between atoms: _433  and  _434
REMARK  171  A    between atoms: _433  and  _436
REMARK  172  A    between atoms: _436  and  _437
REMARK  173  A    between atoms: _437  and  _438
REMARK  174  A    between atoms: _440  and  _442
REMARK  175  A    between atoms: _442  and  _443
REMARK  176  A    between atoms: _442  and  _445
REMARK  177  A    between atoms: _445  and  _446
REMARK  178  A    between atoms: _448  and  _450
REMARK  179  A    between atoms: _450  and  _451
REMARK  180  A    between atoms: _450  and  _453
REMARK  181  A    between atoms: _453  and  _454
REMARK  182  A    between atoms: _456  and  _458
REMARK  183  A    between atoms: _458  and  _459
REMARK  184  A    between atoms: _458  and  _461
REMARK  185  A    between atoms: _461  and  _462
REMARK  186  A    between atoms: _462  and  _463
REMARK  187  A    between atoms: _463  and  _464
REMARK  188  A    between atoms: _473  and  _475
REMARK  189  A    between atoms: _475  and  _476
REMARK  190  A    between atoms: _475  and  _478
REMARK  191  A    between atoms: _478  and  _479
REMARK  192  A    between atoms: _484  and  _486
REMARK  193  A    between atoms: _486  and  _487
REMARK  194  A    between atoms: _486  and  _489
REMARK  195  A    between atoms: _489  and  _490
REMARK  196  A    between atoms: _490  and  _491
REMARK  197  A    between atoms: _491  and  _492
REMARK  198  A    between atoms: _501  and  _503
REMARK  199  A    between atoms: _503  and  _504
REMARK  200  A    between atoms: _503  and  _506
REMARK  201  A    between atoms: _506  and  _507
REMARK  202  A    between atoms: _507  and  _508
REMARK  203  A    between atoms: _508  and  _509
REMARK  204  A    between atoms: _518  and  _520
REMARK  205  A    between atoms: _520  and  _521
REMARK  206  A    between atoms: _520  and  _523
REMARK  207  A    between atoms: _523  and  _524
REMARK  208  A    between atoms: _527  and  _529
REMARK  209  A    between atoms: _529  and  _530
REMARK  210  A    between atoms: _529  and  _532
REMARK  211  A    between atoms: _532  and  _533
REMARK  212  A    between atoms: _536  and  _538
REMARK  213  A    between atoms: _538  and  _539
REMARK  214  A    between atoms: _538  and  _541
REMARK  215  A    between atoms: _541  and  _542
REMARK                            x       y       z     vdW  Elec       q    Type
REMARK                         _______ _______ _______ _____ _____    ______ ____
ROOT
ATOM      1  O   HOH     1      11.770  13.292   9.917  0.00  0.00    +0.000 OA
ENDROOT
TORSDOF 0
REMARK  Name = ../refined-set-2016/3iue/3iue_pocket.pdb
REMARK  215 active torsions:
REMARK  status: ('A' for Active; 'I' for Inactive)
REMARK    1  A    between atoms: _1  and  _3
REMARK    2  A    between atoms: _3  and  _4
REMARK    3  A    between atoms: _3  and  _6
REMARK    4  A    between atoms: _10  and  _11
REMARK    5  A    between atoms: _16  and  _18
REMARK    6  A    between atoms: _18  and  _19
REMARK    7  A    between atoms: _18  and  _21
REMARK    8  A    between atoms: _21  and  _22
REMARK    9  A    between atoms: _25  and  _27
REMARK   10  A    between atoms: _27  and  _28
REMARK   11  A    between atoms: _27  and  _30
REMARK   12  A    between atoms: _30  and  _31
REMARK   13  A    between atoms: _31  and  _32
REMARK   14  A    between atoms: _34  and  _36
REMARK   15  A    between atoms: _36  and  _37
REMARK   16  A    between atoms: _39  and  _41
REMARK   17  A    between atoms: _41  and  _42
REMARK   18  A    between atoms: _45  and  _47
REMARK   19  A    between atoms: _47  and  _48
REMARK   20  A    between atoms: _47  and  _50
REMARK   21  A    between atoms: _50  and  _51
REMARK   22  A    between atoms: _54  and  _56
REMARK   23  A    between atoms: _56  and  _57
REMARK   24  A    between atoms: _56  and  _59
REMARK   25  A    between atoms: _59  and  _60
REMARK   26  A    between atoms: _65  and  _67
REMARK   27  A    between atoms: _67  and  _68
REMARK   28  A    between atoms: _67  and  _70
REMARK   29  A    between atoms: _70  and  _71
REMARK   30  A    between atoms: _71  and  _72
REMARK   31  A    between atoms: _75  and  _77
REMARK   32  A    between atoms: _77  and  _78
REMARK   33  A    between atoms: _80  and  _82
REMARK   34  A    between atoms: _82  and  _83
REMARK   35  A    between atoms: _82  and  _85
REMARK   36  A    between atoms: _85  and  _86
REMARK   37  A    between atoms: _91  and  _93
REMARK   38  A    between atoms: _93  and  _94
REMARK   39  A    between atoms: _93  and  _96
REMARK   40  A    between atoms: _96  and  _97
REMARK   41  A    between atoms: _100  and  _102
REMARK   42  A    between atoms: _102  and  _103
REMARK   43  A    between atoms: _106  and  _108
REMARK   44  A    between atoms: _108  and  _109
REMARK   45  A    between atoms: _108  and  _111
REMARK   46  A    between atoms: _111  and  _112
REMARK   47  A    between atoms: _115  and  _117
REMARK   48  A    between atoms: _117  and  _118
REMARK   49  A    between atoms: _117  and  _120
REMARK   50  A    between atoms: _123  and  _125
REMARK   51  A    between atoms: _125  and  _126
REMARK   52  A    between atoms: _125  and  _128
REMARK   53  A    between atoms: _128  and  _129
REMARK   54  A    between atoms: _131  and  _133
REMARK   55  A    between atoms: _133  and  _134
REMARK   56  A    between atoms: _133  and  _136
REMARK   57  A    between atoms: _136  and  _137
REMARK   58  A    between atoms: _140  and  _142
REMARK   59  A    between atoms: _142  and  _143
REMARK   60  A    between atoms: _142  and  _145
REMARK   61  A    between atoms: _145  and  _146
REMARK   62  A    between atoms: _152  and  _154
REMARK   63  A    between atoms: _154  and  _155
REMARK   64  A    between atoms: _154  and  _157
REMARK   65  A    between atoms: _157  and  _158
REMARK   66  A    between atoms: _163  and  _165
REMARK   67  A    between atoms: _165  and  _166
REMARK   68  A    between atoms: _165  and  _168
REMARK   69  A    between atoms: _168  and  _169
REMARK   70  A    between atoms: _169  and  _170
REMARK   71  A    between atoms: _175  and  _177
REMARK   72  A    between atoms: _177  and  _178
REMARK   73  A    between atoms: _177  and  _180
REMARK   74  A    between atoms: _180  and  _181
REMARK   75  A    between atoms: _187  and  _189
REMARK   76  A    between atoms: _189  and  _190
REMARK   77  A    between atoms: _189  and  _192
REMARK   78  A    between atoms: _192  and  _193
REMARK   79  A    between atoms: _198  and  _199
REMARK   80  A    between atoms: _202  and  _203
REMARK   81  A    between atoms: _208  and  _210
REMARK   82  A    between atoms: _210  and  _211
REMARK   83  A    between atoms: _210  and  _213
REMARK   84  A    between atoms: _213  and  _214
REMARK   85  A    between atoms: _214  and  _215
REMARK   86  A    between atoms: _218  and  _220
REMARK   87  A    between atoms: _220  and  _221
REMARK   88  A    between atoms: _220  and  _223
REMARK   89  A    between atoms: _223  and  _224
REMARK   90  A    between atoms: _229  and  _231
REMARK   91  A    between atoms: _231  and  _232
REMARK   92  A    between atoms: _231  and  _234
REMARK   93  A    between atoms: _234  and  _235
REMARK   94  A    between atoms: _241  and  _243
REMARK   95  A    between atoms: _243  and  _244
REMARK   96  A    between atoms: _243  and  _246
REMARK   97  A    between atoms: _249  and  _251
REMARK   98  A    between atoms: _251  and  _252
REMARK   99  A    between atoms: _251  and  _254
REMARK  100  A    between atoms: _257  and  _259
REMARK  101  A    between atoms: _259  and  _260
REMARK  102  A    between atoms: _259  and  _262
REMARK  103  A    between atoms: _262  and  _263
REMARK  104  A    between atoms: _269  and  _271
REMARK  105  A    between atoms: _271  and  _272
REMARK  106  A    between atoms: _271  and  _274
REMARK  107  A    between atoms: _274  and  _275
REMARK  108  A    between atoms: _281  and  _283
REMARK  109  A    between atoms: _283  and  _284
REMARK  110  A    between atoms: _286  and  _288
REMARK  111  A    between atoms: _288  and  _289
REMARK  112  A    between atoms: _288  and  _291
REMARK  113  A    between atoms: _291  and  _292
REMARK  114  A    between atoms: _292  and  _293
REMARK  115  A    between atoms: _296  and  _298
REMARK  116  A    between atoms: _298  and  _299
REMARK  117  A    between atoms: _298  and  _301
REMARK  118  A    between atoms: _301  and  _302
REMARK  119  A    between atoms: _302  and  _303
REMARK  120  A    between atoms: _303  and  _304
REMARK  121  A    between atoms: _304  and  _305
REMARK  122  A    between atoms: _309  and  _311
REMARK  123  A    between atoms: _311  and  _312
REMARK  124  A    between atoms: _311  and  _314
REMARK  125  A    between atoms: _314  and  _315
REMARK  126  A    between atoms: _318  and  _320
REMARK  127  A    between atoms: _320  and  _321
REMARK  128  A    between atoms: _320  and  _323
REMARK  129  A    between atoms: _323  and  _324
REMARK  130  A    between atoms: _329  and  _330
REMARK  131  A    between atoms: _332  and  _334
REMARK  132  A    between atoms: _334  and  _335
REMARK  133  A    between atoms: _334  and  _337
REMARK  134  A    between atoms: _337  and  _338
REMARK  135  A    between atoms: _338  and  _339
REMARK  136  A    between atoms: _344  and  _346
REMARK  137  A    between atoms: _346  and  _347
REMARK  138  A    between atoms: _346  and  _349
REMARK  139  A    between atoms: _349  and  _350
REMARK  140  A    between atoms: _353  and  _355
REMARK  141  A    between atoms: _355  and  _356
REMARK  142  A    between atoms: _355  and  _358
REMARK  143  A    between atoms: _358  and  _359
REMARK  144  A    between atoms: _362  and  _364
REMARK  145  A    between atoms: _364  and  _365
REMARK  146  A    between atoms: _367  and  _369
REMARK  147  A    between atoms: _369  and  _370
REMARK  148  A    between atoms: _369  and  _372
REMARK  149  A    between atoms: _376  and  _377
REMARK  150  A    between atoms: _382  and  _384
REMARK  151  A    between atoms: _384  and  _385
REMARK  152  A    between atoms: _384  and  _387
REMARK  153  A    between atoms: _387  and  _388
REMARK  154  A    between atoms: _391  and  _393
REMARK  155  A    between atoms: _393  and  _394
REMARK  156  A    between atoms: _393  and  _396
REMARK  157  A    between atoms: _399  and  _401
REMARK  158  A    between atoms: _401  and  _402
REMARK  159  A    between atoms: _401  and  _404
REMARK  160  A    between atoms: _404  and  _405
REMARK  161  A    between atoms: _405  and  _406
REMARK  162  A    between atoms: _406  and  _407
REMARK  163  A    between atoms: _416  and  _418
REMARK  164  A    between atoms: _418  and  _419
REMARK  165  A    between atoms: _418  and  _421
REMARK  166  A    between atoms: _421  and  _422
REMARK  167  A    between atoms: _425  and  _427
REMARK  168  A    between atoms: _427  and  _428
REMARK  169  A    between atoms: _431  and  _433
REMARK  170  A    between atoms: _433  and  _434
REMARK  171  A    between atoms: _433  and  _436
REMARK  172  A    between atoms: _436  and  _437
REMARK  173  A    between atoms: _437  and  _438
REMARK  174  A    between atoms: _440  and  _442
REMARK  175  A    between atoms: _442  and  _443
REMARK  176  A    between atoms: _442  and  _445
REMARK  177  A    between atoms: _445  and  _446
REMARK  178  A    between atoms: _448  and  _450
REMARK  179  A    between atoms: _450  and  _451
REMARK  180  A    between atoms: _450  and  _453
REMARK  181  A    between atoms: _453  and  _454
REMARK  182  A    between atoms: _456  and  _458
REMARK  183  A    between atoms: _458  and  _459
REMARK  184  A    between atoms: _458  and  _461
REMARK  185  A    between atoms: _461  and  _462
REMARK  186  A    between atoms: _462  and  _463
REMARK  187  A    between atoms: _463  and  _464
REMARK  188  A    between atoms: _473  and  _475
REMARK  189  A    between atoms: _475  and  _476
REMARK  190  A    between atoms: _475  and  _478
REMARK  191  A    between atoms: _478  and  _479
REMARK  192  A    between atoms: _484  and  _486
REMARK  193  A    between atoms: _486  and  _487
REMARK  194  A    between atoms: _486  and  _489
REMARK  195  A    between atoms: _489  and  _490
REMARK  196  A    between atoms: _490  and  _491
REMARK  197  A    between atoms: _491  and  _492
REMARK  198  A    between atoms: _501  and  _503
REMARK  199  A    between atoms: _503  and  _504
REMARK  200  A    between atoms: _503  and  _506
REMARK  201  A    between atoms: _506  and  _507
REMARK  202  A    between atoms: _507  and  _508
REMARK  203  A    between atoms: _508  and  _509
REMARK  204  A    between atoms: _518  and  _520
REMARK  205  A    between atoms: _520  and  _521
REMARK  206  A    between atoms: _520  and  _523
REMARK  207  A    between atoms: _523  and  _524
REMARK  208  A    between atoms: _527  and  _529
REMARK  209  A    between atoms: _529  and  _530
REMARK  210  A    between atoms: _529  and  _532
REMARK  211  A    between atoms: _532  and  _533
REMARK  212  A    between atoms: _536  and  _538
REMARK  213  A    between atoms: _538  and  _539
REMARK  214  A    between atoms: _538  and  _541
REMARK  215  A    between atoms: _541  and  _542
REMARK                            x       y       z     vdW  Elec       q    Type
REMARK                         _______ _______ _______ _____ _____    ______ ____
ROOT
ATOM      1  O   HOH     1      13.739   4.501   1.831  0.00  0.00    +0.000 OA
ENDROOT
TORSDOF 0
REMARK  Name = ../refined-set-2016/3iue/3iue_pocket.pdb
REMARK  215 active torsions:
REMARK  status: ('A' for Active; 'I' for Inactive)
REMARK    1  A    between atoms: _1  and  _3
REMARK    2  A    between atoms: _3  and  _4
REMARK    3  A    between atoms: _3  and  _6
REMARK    4  A    between atoms: _10  and  _11
REMARK    5  A    between atoms: _16  and  _18
REMARK    6  A    between atoms: _18  and  _19
REMARK    7  A    between atoms: _18  and  _21
REMARK    8  A    between atoms: _21  and  _22
REMARK    9  A    between atoms: _25  and  _27
REMARK   10  A    between atoms: _27  and  _28
REMARK   11  A    between atoms: _27  and  _30
REMARK   12  A    between atoms: _30  and  _31
REMARK   13  A    between atoms: _31  and  _32
REMARK   14  A    between atoms: _34  and  _36
REMARK   15  A    between atoms: _36  and  _37
REMARK   16  A    between atoms: _39  and  _41
REMARK   17  A    between atoms: _41  and  _42
REMARK   18  A    between atoms: _45  and  _47
REMARK   19  A    between atoms: _47  and  _48
REMARK   20  A    between atoms: _47  and  _50
REMARK   21  A    between atoms: _50  and  _51
REMARK   22  A    between atoms: _54  and  _56
REMARK   23  A    between atoms: _56  and  _57
REMARK   24  A    between atoms: _56  and  _59
REMARK   25  A    between atoms: _59  and  _60
REMARK   26  A    between atoms: _65  and  _67
REMARK   27  A    between atoms: _67  and  _68
REMARK   28  A    between atoms: _67  and  _70
REMARK   29  A    between atoms: _70  and  _71
REMARK   30  A    between atoms: _71  and  _72
REMARK   31  A    between atoms: _75  and  _77
REMARK   32  A    between atoms: _77  and  _78
REMARK   33  A    between atoms: _80  and  _82
REMARK   34  A    between atoms: _82  and  _83
REMARK   35  A    between atoms: _82  and  _85
REMARK   36  A    between atoms: _85  and  _86
REMARK   37  A    between atoms: _91  and  _93
REMARK   38  A    between atoms: _93  and  _94
REMARK   39  A    between atoms: _93  and  _96
REMARK   40  A    between atoms: _96  and  _97
REMARK   41  A    between atoms: _100  and  _102
REMARK   42  A    between atoms: _102  and  _103
REMARK   43  A    between atoms: _106  and  _108
REMARK   44  A    between atoms: _108  and  _109
REMARK   45  A    between atoms: _108  and  _111
REMARK   46  A    between atoms: _111  and  _112
REMARK   47  A    between atoms: _115  and  _117
REMARK   48  A    between atoms: _117  and  _118
REMARK   49  A    between atoms: _117  and  _120
REMARK   50  A    between atoms: _123  and  _125
REMARK   51  A    between atoms: _125  and  _126
REMARK   52  A    between atoms: _125  and  _128
REMARK   53  A    between atoms: _128  and  _129
REMARK   54  A    between atoms: _131  and  _133
REMARK   55  A    between atoms: _133  and  _134
REMARK   56  A    between atoms: _133  and  _136
REMARK   57  A    between atoms: _136  and  _137
REMARK   58  A    between atoms: _140  and  _142
REMARK   59  A    between atoms: _142  and  _143
REMARK   60  A    between atoms: _142  and  _145
REMARK   61  A    between atoms: _145  and  _146
REMARK   62  A    between atoms: _152  and  _154
REMARK   63  A    between atoms: _154  and  _155
REMARK   64  A    between atoms: _154  and  _157
REMARK   65  A    between atoms: _157  and  _158
REMARK   66  A    between atoms: _163  and  _165
REMARK   67  A    between atoms: _165  and  _166
REMARK   68  A    between atoms: _165  and  _168
REMARK   69  A    between atoms: _168  and  _169
REMARK   70  A    between atoms: _169  and  _170
REMARK   71  A    between atoms: _175  and  _177
REMARK   72  A    between atoms: _177  and  _178
REMARK   73  A    between atoms: _177  and  _180
REMARK   74  A    between atoms: _180  and  _181
REMARK   75  A    between atoms: _187  and  _189
REMARK   76  A    between atoms: _189  and  _190
REMARK   77  A    between atoms: _189  and  _192
REMARK   78  A    between atoms: _192  and  _193
REMARK   79  A    between atoms: _198  and  _199
REMARK   80  A    between atoms: _202  and  _203
REMARK   81  A    between atoms: _208  and  _210
REMARK   82  A    between atoms: _210  and  _211
REMARK   83  A    between atoms: _210  and  _213
REMARK   84  A    between atoms: _213  and  _214
REMARK   85  A    between atoms: _214  and  _215
REMARK   86  A    between atoms: _218  and  _220
REMARK   87  A    between atoms: _220  and  _221
REMARK   88  A    between atoms: _220  and  _223
REMARK   89  A    between atoms: _223  and  _224
REMARK   90  A    between atoms: _229  and  _231
REMARK   91  A    between atoms: _231  and  _232
REMARK   92  A    between atoms: _231  and  _234
REMARK   93  A    between atoms: _234  and  _235
REMARK   94  A    between atoms: _241  and  _243
REMARK   95  A    between atoms: _243  and  _244
REMARK   96  A    between atoms: _243  and  _246
REMARK   97  A    between atoms: _249  and  _251
REMARK   98  A    between atoms: _251  and  _252
REMARK   99  A    between atoms: _251  and  _254
REMARK  100  A    between atoms: _257  and  _259
REMARK  101  A    between atoms: _259  and  _260
REMARK  102  A    between atoms: _259  and  _262
REMARK  103  A    between atoms: _262  and  _263
REMARK  104  A    between atoms: _269  and  _271
REMARK  105  A    between atoms: _271  and  _272
REMARK  106  A    between atoms: _271  and  _274
REMARK  107  A    between atoms: _274  and  _275
REMARK  108  A    between atoms: _281  and  _283
REMARK  109  A    between atoms: _283  and  _284
REMARK  110  A    between atoms: _286  and  _288
REMARK  111  A    between atoms: _288  and  _289
REMARK  112  A    between atoms: _288  and  _291
REMARK  113  A    between atoms: _291  and  _292
REMARK  114  A    between atoms: _292  and  _293
REMARK  115  A    between atoms: _296  and  _298
REMARK  116  A    between atoms: _298  and  _299
REMARK  117  A    between atoms: _298  and  _301
REMARK  118  A    between atoms: _301  and  _302
REMARK  119  A    between atoms: _302  and  _303
REMARK  120  A    between atoms: _303  and  _304
REMARK  121  A    between atoms: _304  and  _305
REMARK  122  A    between atoms: _309  and  _311
REMARK  123  A    between atoms: _311  and  _312
REMARK  124  A    between atoms: _311  and  _314
REMARK  125  A    between atoms: _314  and  _315
REMARK  126  A    between atoms: _318  and  _320
REMARK  127  A    between atoms: _320  and  _321
REMARK  128  A    between atoms: _320  and  _323
REMARK  129  A    between atoms: _323  and  _324
REMARK  130  A    between atoms: _329  and  _330
REMARK  131  A    between atoms: _332  and  _334
REMARK  132  A    between atoms: _334  and  _335
REMARK  133  A    between atoms: _334  and  _337
REMARK  134  A    between atoms: _337  and  _338
REMARK  135  A    between atoms: _338  and  _339
REMARK  136  A    between atoms: _344  and  _346
REMARK  137  A    between atoms: _346  and  _347
REMARK  138  A    between atoms: _346  and  _349
REMARK  139  A    between atoms: _349  and  _350
REMARK  140  A    between atoms: _353  and  _355
REMARK  141  A    between atoms: _355  and  _356
REMARK  142  A    between atoms: _355  and  _358
REMARK  143  A    between atoms: _358  and  _359
REMARK  144  A    between atoms: _362  and  _364
REMARK  145  A    between atoms: _364  and  _365
REMARK  146  A    between atoms: _367  and  _369
REMARK  147  A    between atoms: _369  and  _370
REMARK  148  A    between atoms: _369  and  _372
REMARK  149  A    between atoms: _376  and  _377
REMARK  150  A    between atoms: _382  and  _384
REMARK  151  A    between atoms: _384  and  _385
REMARK  152  A    between atoms: _384  and  _387
REMARK  153  A    between atoms: _387  and  _388
REMARK  154  A    between atoms: _391  and  _393
REMARK  155  A    between atoms: _393  and  _394
REMARK  156  A    between atoms: _393  and  _396
REMARK  157  A    between atoms: _399  and  _401
REMARK  158  A    between atoms: _401  and  _402
REMARK  159  A    between atoms: _401  and  _404
REMARK  160  A    between atoms: _404  and  _405
REMARK  161  A    between atoms: _405  and  _406
REMARK  162  A    between atoms: _406  and  _407
REMARK  163  A    between atoms: _416  and  _418
REMARK  164  A    between atoms: _418  and  _419
REMARK  165  A    between atoms: _418  and  _421
REMARK  166  A    between atoms: _421  and  _422
REMARK  167  A    between atoms: _425  and  _427
REMARK  168  A    between atoms: _427  and  _428
REMARK  169  A    between atoms: _431  and  _433
REMARK  170  A    between atoms: _433  and  _434
REMARK  171  A    between atoms: _433  and  _436
REMARK  172  A    between atoms: _436  and  _437
REMARK  173  A    between atoms: _437  and  _438
REMARK  174  A    between atoms: _440  and  _442
REMARK  175  A    between atoms: _442  and  _443
REMARK  176  A    between atoms: _442  and  _445
REMARK  177  A    between atoms: _445  and  _446
REMARK  178  A    between atoms: _448  and  _450
REMARK  179  A    between atoms: _450  and  _451
REMARK  180  A    between atoms: _450  and  _453
REMARK  181  A    between atoms: _453  and  _454
REMARK  182  A    between atoms: _456  and  _458
REMARK  183  A    between atoms: _458  and  _459
REMARK  184  A    between atoms: _458  and  _461
REMARK  185  A    between atoms: _461  and  _462
REMARK  186  A    between atoms: _462  and  _463
REMARK  187  A    between atoms: _463  and  _464
REMARK  188  A    between atoms: _473  and  _475
REMARK  189  A    between atoms: _475  and  _476
REMARK  190  A    between atoms: _475  and  _478
REMARK  191  A    between atoms: _478  and  _479
REMARK  192  A    between atoms: _484  and  _486
REMARK  193  A    between atoms: _486  and  _487
REMARK  194  A    between atoms: _486  and  _489
REMARK  195  A    between atoms: _489  and  _490
REMARK  196  A    between atoms: _490  and  _491
REMARK  197  A    between atoms: _491  and  _492
REMARK  198  A    between atoms: _501  and  _503
REMARK  199  A    between atoms: _503  and  _504
REMARK  200  A    between atoms: _503  and  _506
REMARK  201  A    between atoms: _506  and  _507
REMARK  202  A    between atoms: _507  and  _508
REMARK  203  A    between atoms: _508  and  _509
REMARK  204  A    between atoms: _518  and  _520
REMARK  205  A    between atoms: _520  and  _521
REMARK  206  A    between atoms: _520  and  _523
REMARK  207  A    between atoms: _523  and  _524
REMARK  208  A    between atoms: _527  and  _529
REMARK  209  A    between atoms: _529  and  _530
REMARK  210  A    between atoms: _529  and  _532
REMARK  211  A    between atoms: _532  and  _533
REMARK  212  A    between atoms: _536  and  _538
REMARK  213  A    between atoms: _538  and  _539
REMARK  214  A    between atoms: _538  and  _541
REMARK  215  A    between atoms: _541  and  _542
REMARK                            x       y       z     vdW  Elec       q    Type
REMARK                         _______ _______ _______ _____ _____    ______ ____
ROOT
ATOM      1  O   HOH     1      10.478   9.922   3.176  0.00  0.00    +0.000 OA
ENDROOT
TORSDOF 0
REMARK  Name = ../refined-set-2016/3iue/3iue_pocket.pdb
REMARK  215 active torsions:
REMARK  status: ('A' for Active; 'I' for Inactive)
REMARK    1  A    between atoms: _1  and  _3
REMARK    2  A    between atoms: _3  and  _4
REMARK    3  A    between atoms: _3  and  _6
REMARK    4  A    between atoms: _10  and  _11
REMARK    5  A    between atoms: _16  and  _18
REMARK    6  A    between atoms: _18  and  _19
REMARK    7  A    between atoms: _18  and  _21
REMARK    8  A    between atoms: _21  and  _22
REMARK    9  A    between atoms: _25  and  _27
REMARK   10  A    between atoms: _27  and  _28
REMARK   11  A    between atoms: _27  and  _30
REMARK   12  A    between atoms: _30  and  _31
REMARK   13  A    between atoms: _31  and  _32
REMARK   14  A    between atoms: _34  and  _36
REMARK   15  A    between atoms: _36  and  _37
REMARK   16  A    between atoms: _39  and  _41
REMARK   17  A    between atoms: _41  and  _42
REMARK   18  A    between atoms: _45  and  _47
REMARK   19  A    between atoms: _47  and  _48
REMARK   20  A    between atoms: _47  and  _50
REMARK   21  A    between atoms: _50  and  _51
REMARK   22  A    between atoms: _54  and  _56
REMARK   23  A    between atoms: _56  and  _57
REMARK   24  A    between atoms: _56  and  _59
REMARK   25  A    between atoms: _59  and  _60
REMARK   26  A    between atoms: _65  and  _67
REMARK   27  A    between atoms: _67  and  _68
REMARK   28  A    between atoms: _67  and  _70
REMARK   29  A    between atoms: _70  and  _71
REMARK   30  A    between atoms: _71  and  _72
REMARK   31  A    between atoms: _75  and  _77
REMARK   32  A    between atoms: _77  and  _78
REMARK   33  A    between atoms: _80  and  _82
REMARK   34  A    between atoms: _82  and  _83
REMARK   35  A    between atoms: _82  and  _85
REMARK   36  A    between atoms: _85  and  _86
REMARK   37  A    between atoms: _91  and  _93
REMARK   38  A    between atoms: _93  and  _94
REMARK   39  A    between atoms: _93  and  _96
REMARK   40  A    between atoms: _96  and  _97
REMARK   41  A    between atoms: _100  and  _102
REMARK   42  A    between atoms: _102  and  _103
REMARK   43  A    between atoms: _106  and  _108
REMARK   44  A    between atoms: _108  and  _109
REMARK   45  A    between atoms: _108  and  _111
REMARK   46  A    between atoms: _111  and  _112
REMARK   47  A    between atoms: _115  and  _117
REMARK   48  A    between atoms: _117  and  _118
REMARK   49  A    between atoms: _117  and  _120
REMARK   50  A    between atoms: _123  and  _125
REMARK   51  A    between atoms: _125  and  _126
REMARK   52  A    between atoms: _125  and  _128
REMARK   53  A    between atoms: _128  and  _129
REMARK   54  A    between atoms: _131  and  _133
REMARK   55  A    between atoms: _133  and  _134
REMARK   56  A    between atoms: _133  and  _136
REMARK   57  A    between atoms: _136  and  _137
REMARK   58  A    between atoms: _140  and  _142
REMARK   59  A    between atoms: _142  and  _143
REMARK   60  A    between atoms: _142  and  _145
REMARK   61  A    between atoms: _145  and  _146
REMARK   62  A    between atoms: _152  and  _154
REMARK   63  A    between atoms: _154  and  _155
REMARK   64  A    between atoms: _154  and  _157
REMARK   65  A    between atoms: _157  and  _158
REMARK   66  A    between atoms: _163  and  _165
REMARK   67  A    between atoms: _165  and  _166
REMARK   68  A    between atoms: _165  and  _168
REMARK   69  A    between atoms: _168  and  _169
REMARK   70  A    between atoms: _169  and  _170
REMARK   71  A    between atoms: _175  and  _177
REMARK   72  A    between atoms: _177  and  _178
REMARK   73  A    between atoms: _177  and  _180
REMARK   74  A    between atoms: _180  and  _181
REMARK   75  A    between atoms: _187  and  _189
REMARK   76  A    between atoms: _189  and  _190
REMARK   77  A    between atoms: _189  and  _192
REMARK   78  A    between atoms: _192  and  _193
REMARK   79  A    between atoms: _198  and  _199
REMARK   80  A    between atoms: _202  and  _203
REMARK   81  A    between atoms: _208  and  _210
REMARK   82  A    between atoms: _210  and  _211
REMARK   83  A    between atoms: _210  and  _213
REMARK   84  A    between atoms: _213  and  _214
REMARK   85  A    between atoms: _214  and  _215
REMARK   86  A    between atoms: _218  and  _220
REMARK   87  A    between atoms: _220  and  _221
REMARK   88  A    between atoms: _220  and  _223
REMARK   89  A    between atoms: _223  and  _224
REMARK   90  A    between atoms: _229  and  _231
REMARK   91  A    between atoms: _231  and  _232
REMARK   92  A    between atoms: _231  and  _234
REMARK   93  A    between atoms: _234  and  _235
REMARK   94  A    between atoms: _241  and  _243
REMARK   95  A    between atoms: _243  and  _244
REMARK   96  A    between atoms: _243  and  _246
REMARK   97  A    between atoms: _249  and  _251
REMARK   98  A    between atoms: _251  and  _252
REMARK   99  A    between atoms: _251  and  _254
REMARK  100  A    between atoms: _257  and  _259
REMARK  101  A    between atoms: _259  and  _260
REMARK  102  A    between atoms: _259  and  _262
REMARK  103  A    between atoms: _262  and  _263
REMARK  104  A    between atoms: _269  and  _271
REMARK  105  A    between atoms: _271  and  _272
REMARK  106  A    between atoms: _271  and  _274
REMARK  107  A    between atoms: _274  and  _275
REMARK  108  A    between atoms: _281  and  _283
REMARK  109  A    between atoms: _283  and  _284
REMARK  110  A    between atoms: _286  and  _288
REMARK  111  A    between atoms: _288  and  _289
REMARK  112  A    between atoms: _288  and  _291
REMARK  113  A    between atoms: _291  and  _292
REMARK  114  A    between atoms: _292  and  _293
REMARK  115  A    between atoms: _296  and  _298
REMARK  116  A    between atoms: _298  and  _299
REMARK  117  A    between atoms: _298  and  _301
REMARK  118  A    between atoms: _301  and  _302
REMARK  119  A    between atoms: _302  and  _303
REMARK  120  A    between atoms: _303  and  _304
REMARK  121  A    between atoms: _304  and  _305
REMARK  122  A    between atoms: _309  and  _311
REMARK  123  A    between atoms: _311  and  _312
REMARK  124  A    between atoms: _311  and  _314
REMARK  125  A    between atoms: _314  and  _315
REMARK  126  A    between atoms: _318  and  _320
REMARK  127  A    between atoms: _320  and  _321
REMARK  128  A    between atoms: _320  and  _323
REMARK  129  A    between atoms: _323  and  _324
REMARK  130  A    between atoms: _329  and  _330
REMARK  131  A    between atoms: _332  and  _334
REMARK  132  A    between atoms: _334  and  _335
REMARK  133  A    between atoms: _334  and  _337
REMARK  134  A    between atoms: _337  and  _338
REMARK  135  A    between atoms: _338  and  _339
REMARK  136  A    between atoms: _344  and  _346
REMARK  137  A    between atoms: _346  and  _347
REMARK  138  A    between atoms: _346  and  _349
REMARK  139  A    between atoms: _349  and  _350
REMARK  140  A    between atoms: _353  and  _355
REMARK  141  A    between atoms: _355  and  _356
REMARK  142  A    between atoms: _355  and  _358
REMARK  143  A    between atoms: _358  and  _359
REMARK  144  A    between atoms: _362  and  _364
REMARK  145  A    between atoms: _364  and  _365
REMARK  146  A    between atoms: _367  and  _369
REMARK  147  A    between atoms: _369  and  _370
REMARK  148  A    between atoms: _369  and  _372
REMARK  149  A    between atoms: _376  and  _377
REMARK  150  A    between atoms: _382  and  _384
REMARK  151  A    between atoms: _384  and  _385
REMARK  152  A    between atoms: _384  and  _387
REMARK  153  A    between atoms: _387  and  _388
REMARK  154  A    between atoms: _391  and  _393
REMARK  155  A    between atoms: _393  and  _394
REMARK  156  A    between atoms: _393  and  _396
REMARK  157  A    between atoms: _399  and  _401
REMARK  158  A    between atoms: _401  and  _402
REMARK  159  A    between atoms: _401  and  _404
REMARK  160  A    between atoms: _404  and  _405
REMARK  161  A    between atoms: _405  and  _406
REMARK  162  A    between atoms: _406  and  _407
REMARK  163  A    between atoms: _416  and  _418
REMARK  164  A    between atoms: _418  and  _419
REMARK  165  A    between atoms: _418  and  _421
REMARK  166  A    between atoms: _421  and  _422
REMARK  167  A    between atoms: _425  and  _427
REMARK  168  A    between atoms: _427  and  _428
REMARK  169  A    between atoms: _431  and  _433
REMARK  170  A    between atoms: _433  and  _434
REMARK  171  A    between atoms: _433  and  _436
REMARK  172  A    between atoms: _436  and  _437
REMARK  173  A    between atoms: _437  and  _438
REMARK  174  A    between atoms: _440  and  _442
REMARK  175  A    between atoms: _442  and  _443
REMARK  176  A    between atoms: _442  and  _445
REMARK  177  A    between atoms: _445  and  _446
REMARK  178  A    between atoms: _448  and  _450
REMARK  179  A    between atoms: _450  and  _451
REMARK  180  A    between atoms: _450  and  _453
REMARK  181  A    between atoms: _453  and  _454
REMARK  182  A    between atoms: _456  and  _458
REMARK  183  A    between atoms: _458  and  _459
REMARK  184  A    between atoms: _458  and  _461
REMARK  185  A    between atoms: _461  and  _462
REMARK  186  A    between atoms: _462  and  _463
REMARK  187  A    between atoms: _463  and  _464
REMARK  188  A    between atoms: _473  and  _475
REMARK  189  A    between atoms: _475  and  _476
REMARK  190  A    between atoms: _475  and  _478
REMARK  191  A    between atoms: _478  and  _479
REMARK  192  A    between atoms: _484  and  _486
REMARK  193  A    between atoms: _486  and  _487
REMARK  194  A    between atoms: _486  and  _489
REMARK  195  A    between atoms: _489  and  _490
REMARK  196  A    between atoms: _490  and  _491
REMARK  197  A    between atoms: _491  and  _492
REMARK  198  A    between atoms: _501  and  _503
REMARK  199  A    between atoms: _503  and  _504
REMARK  200  A    between atoms: _503  and  _506
REMARK  201  A    between atoms: _506  and  _507
REMARK  202  A    between atoms: _507  and  _508
REMARK  203  A    between atoms: _508  and  _509
REMARK  204  A    between atoms: _518  and  _520
REMARK  205  A    between atoms: _520  and  _521
REMARK  206  A    between atoms: _520  and  _523
REMARK  207  A    between atoms: _523  and  _524
REMARK  208  A    between atoms: _527  and  _529
REMARK  209  A    between atoms: _529  and  _530
REMARK  210  A    between atoms: _529  and  _532
REMARK  211  A    between atoms: _532  and  _533
REMARK  212  A    between atoms: _536  and  _538
REMARK  213  A    between atoms: _538  and  _539
REMARK  214  A    between atoms: _538  and  _541
REMARK  215  A    between atoms: _541  and  _542
REMARK                            x       y       z     vdW  Elec       q    Type
REMARK                         _______ _______ _______ _____ _____    ______ ____
ROOT
ATOM      1  O   HOH     1      22.046   8.719   7.904  0.00  0.00    +0.000 OA
ENDROOT
TORSDOF 0
REMARK  Name = ../refined-set-2016/3iue/3iue_pocket.pdb
REMARK  215 active torsions:
REMARK  status: ('A' for Active; 'I' for Inactive)
REMARK    1  A    between atoms: _1  and  _3
REMARK    2  A    between atoms: _3  and  _4
REMARK    3  A    between atoms: _3  and  _6
REMARK    4  A    between atoms: _10  and  _11
REMARK    5  A    between atoms: _16  and  _18
REMARK    6  A    between atoms: _18  and  _19
REMARK    7  A    between atoms: _18  and  _21
REMARK    8  A    between atoms: _21  and  _22
REMARK    9  A    between atoms: _25  and  _27
REMARK   10  A    between atoms: _27  and  _28
REMARK   11  A    between atoms: _27  and  _30
REMARK   12  A    between atoms: _30  and  _31
REMARK   13  A    between atoms: _31  and  _32
REMARK   14  A    between atoms: _34  and  _36
REMARK   15  A    between atoms: _36  and  _37
REMARK   16  A    between atoms: _39  and  _41
REMARK   17  A    between atoms: _41  and  _42
REMARK   18  A    between atoms: _45  and  _47
REMARK   19  A    between atoms: _47  and  _48
REMARK   20  A    between atoms: _47  and  _50
REMARK   21  A    between atoms: _50  and  _51
REMARK   22  A    between atoms: _54  and  _56
REMARK   23  A    between atoms: _56  and  _57
REMARK   24  A    between atoms: _56  and  _59
REMARK   25  A    between atoms: _59  and  _60
REMARK   26  A    between atoms: _65  and  _67
REMARK   27  A    between atoms: _67  and  _68
REMARK   28  A    between atoms: _67  and  _70
REMARK   29  A    between atoms: _70  and  _71
REMARK   30  A    between atoms: _71  and  _72
REMARK   31  A    between atoms: _75  and  _77
REMARK   32  A    between atoms: _77  and  _78
REMARK   33  A    between atoms: _80  and  _82
REMARK   34  A    between atoms: _82  and  _83
REMARK   35  A    between atoms: _82  and  _85
REMARK   36  A    between atoms: _85  and  _86
REMARK   37  A    between atoms: _91  and  _93
REMARK   38  A    between atoms: _93  and  _94
REMARK   39  A    between atoms: _93  and  _96
REMARK   40  A    between atoms: _96  and  _97
REMARK   41  A    between atoms: _100  and  _102
REMARK   42  A    between atoms: _102  and  _103
REMARK   43  A    between atoms: _106  and  _108
REMARK   44  A    between atoms: _108  and  _109
REMARK   45  A    between atoms: _108  and  _111
REMARK   46  A    between atoms: _111  and  _112
REMARK   47  A    between atoms: _115  and  _117
REMARK   48  A    between atoms: _117  and  _118
REMARK   49  A    between atoms: _117  and  _120
REMARK   50  A    between atoms: _123  and  _125
REMARK   51  A    between atoms: _125  and  _126
REMARK   52  A    between atoms: _125  and  _128
REMARK   53  A    between atoms: _128  and  _129
REMARK   54  A    between atoms: _131  and  _133
REMARK   55  A    between atoms: _133  and  _134
REMARK   56  A    between atoms: _133  and  _136
REMARK   57  A    between atoms: _136  and  _137
REMARK   58  A    between atoms: _140  and  _142
REMARK   59  A    between atoms: _142  and  _143
REMARK   60  A    between atoms: _142  and  _145
REMARK   61  A    between atoms: _145  and  _146
REMARK   62  A    between atoms: _152  and  _154
REMARK   63  A    between atoms: _154  and  _155
REMARK   64  A    between atoms: _154  and  _157
REMARK   65  A    between atoms: _157  and  _158
REMARK   66  A    between atoms: _163  and  _165
REMARK   67  A    between atoms: _165  and  _166
REMARK   68  A    between atoms: _165  and  _168
REMARK   69  A    between atoms: _168  and  _169
REMARK   70  A    between atoms: _169  and  _170
REMARK   71  A    between atoms: _175  and  _177
REMARK   72  A    between atoms: _177  and  _178
REMARK   73  A    between atoms: _177  and  _180
REMARK   74  A    between atoms: _180  and  _181
REMARK   75  A    between atoms: _187  and  _189
REMARK   76  A    between atoms: _189  and  _190
REMARK   77  A    between atoms: _189  and  _192
REMARK   78  A    between atoms: _192  and  _193
REMARK   79  A    between atoms: _198  and  _199
REMARK   80  A    between atoms: _202  and  _203
REMARK   81  A    between atoms: _208  and  _210
REMARK   82  A    between atoms: _210  and  _211
REMARK   83  A    between atoms: _210  and  _213
REMARK   84  A    between atoms: _213  and  _214
REMARK   85  A    between atoms: _214  and  _215
REMARK   86  A    between atoms: _218  and  _220
REMARK   87  A    between atoms: _220  and  _221
REMARK   88  A    between atoms: _220  and  _223
REMARK   89  A    between atoms: _223  and  _224
REMARK   90  A    between atoms: _229  and  _231
REMARK   91  A    between atoms: _231  and  _232
REMARK   92  A    between atoms: _231  and  _234
REMARK   93  A    between atoms: _234  and  _235
REMARK   94  A    between atoms: _241  and  _243
REMARK   95  A    between atoms: _243  and  _244
REMARK   96  A    between atoms: _243  and  _246
REMARK   97  A    between atoms: _249  and  _251
REMARK   98  A    between atoms: _251  and  _252
REMARK   99  A    between atoms: _251  and  _254
REMARK  100  A    between atoms: _257  and  _259
REMARK  101  A    between atoms: _259  and  _260
REMARK  102  A    between atoms: _259  and  _262
REMARK  103  A    between atoms: _262  and  _263
REMARK  104  A    between atoms: _269  and  _271
REMARK  105  A    between atoms: _271  and  _272
REMARK  106  A    between atoms: _271  and  _274
REMARK  107  A    between atoms: _274  and  _275
REMARK  108  A    between atoms: _281  and  _283
REMARK  109  A    between atoms: _283  and  _284
REMARK  110  A    between atoms: _286  and  _288
REMARK  111  A    between atoms: _288  and  _289
REMARK  112  A    between atoms: _288  and  _291
REMARK  113  A    between atoms: _291  and  _292
REMARK  114  A    between atoms: _292  and  _293
REMARK  115  A    between atoms: _296  and  _298
REMARK  116  A    between atoms: _298  and  _299
REMARK  117  A    between atoms: _298  and  _301
REMARK  118  A    between atoms: _301  and  _302
REMARK  119  A    between atoms: _302  and  _303
REMARK  120  A    between atoms: _303  and  _304
REMARK  121  A    between atoms: _304  and  _305
REMARK  122  A    between atoms: _309  and  _311
REMARK  123  A    between atoms: _311  and  _312
REMARK  124  A    between atoms: _311  and  _314
REMARK  125  A    between atoms: _314  and  _315
REMARK  126  A    between atoms: _318  and  _320
REMARK  127  A    between atoms: _320  and  _321
REMARK  128  A    between atoms: _320  and  _323
REMARK  129  A    between atoms: _323  and  _324
REMARK  130  A    between atoms: _329  and  _330
REMARK  131  A    between atoms: _332  and  _334
REMARK  132  A    between atoms: _334  and  _335
REMARK  133  A    between atoms: _334  and  _337
REMARK  134  A    between atoms: _337  and  _338
REMARK  135  A    between atoms: _338  and  _339
REMARK  136  A    between atoms: _344  and  _346
REMARK  137  A    between atoms: _346  and  _347
REMARK  138  A    between atoms: _346  and  _349
REMARK  139  A    between atoms: _349  and  _350
REMARK  140  A    between atoms: _353  and  _355
REMARK  141  A    between atoms: _355  and  _356
REMARK  142  A    between atoms: _355  and  _358
REMARK  143  A    between atoms: _358  and  _359
REMARK  144  A    between atoms: _362  and  _364
REMARK  145  A    between atoms: _364  and  _365
REMARK  146  A    between atoms: _367  and  _369
REMARK  147  A    between atoms: _369  and  _370
REMARK  148  A    between atoms: _369  and  _372
REMARK  149  A    between atoms: _376  and  _377
REMARK  150  A    between atoms: _382  and  _384
REMARK  151  A    between atoms: _384  and  _385
REMARK  152  A    between atoms: _384  and  _387
REMARK  153  A    between atoms: _387  and  _388
REMARK  154  A    between atoms: _391  and  _393
REMARK  155  A    between atoms: _393  and  _394
REMARK  156  A    between atoms: _393  and  _396
REMARK  157  A    between atoms: _399  and  _401
REMARK  158  A    between atoms: _401  and  _402
REMARK  159  A    between atoms: _401  and  _404
REMARK  160  A    between atoms: _404  and  _405
REMARK  161  A    between atoms: _405  and  _406
REMARK  162  A    between atoms: _406  and  _407
REMARK  163  A    between atoms: _416  and  _418
REMARK  164  A    between atoms: _418  and  _419
REMARK  165  A    between atoms: _418  and  _421
REMARK  166  A    between atoms: _421  and  _422
REMARK  167  A    between atoms: _425  and  _427
REMARK  168  A    between atoms: _427  and  _428
REMARK  169  A    between atoms: _431  and  _433
REMARK  170  A    between atoms: _433  and  _434
REMARK  171  A    between atoms: _433  and  _436
REMARK  172  A    between atoms: _436  and  _437
REMARK  173  A    between atoms: _437  and  _438
REMARK  174  A    between atoms: _440  and  _442
REMARK  175  A    between atoms: _442  and  _443
REMARK  176  A    between atoms: _442  and  _445
REMARK  177  A    between atoms: _445  and  _446
REMARK  178  A    between atoms: _448  and  _450
REMARK  179  A    between atoms: _450  and  _451
REMARK  180  A    between atoms: _450  and  _453
REMARK  181  A    between atoms: _453  and  _454
REMARK  182  A    between atoms: _456  and  _458
REMARK  183  A    between atoms: _458  and  _459
REMARK  184  A    between atoms: _458  and  _461
REMARK  185  A    between atoms: _461  and  _462
REMARK  186  A    between atoms: _462  and  _463
REMARK  187  A    between atoms: _463  and  _464
REMARK  188  A    between atoms: _473  and  _475
REMARK  189  A    between atoms: _475  and  _476
REMARK  190  A    between atoms: _475  and  _478
REMARK  191  A    between atoms: _478  and  _479
REMARK  192  A    between atoms: _484  and  _486
REMARK  193  A    between atoms: _486  and  _487
REMARK  194  A    between atoms: _486  and  _489
REMARK  195  A    between atoms: _489  and  _490
REMARK  196  A    between atoms: _490  and  _491
REMARK  197  A    between atoms: _491  and  _492
REMARK  198  A    between atoms: _501  and  _503
REMARK  199  A    between atoms: _503  and  _504
REMARK  200  A    between atoms: _503  and  _506
REMARK  201  A    between atoms: _506  and  _507
REMARK  202  A    between atoms: _507  and  _508
REMARK  203  A    between atoms: _508  and  _509
REMARK  204  A    between atoms: _518  and  _520
REMARK  205  A    between atoms: _520  and  _521
REMARK  206  A    between atoms: _520  and  _523
REMARK  207  A    between atoms: _523  and  _524
REMARK  208  A    between atoms: _527  and  _529
REMARK  209  A    between atoms: _529  and  _530
REMARK  210  A    between atoms: _529  and  _532
REMARK  211  A    between atoms: _532  and  _533
REMARK  212  A    between atoms: _536  and  _538
REMARK  213  A    between atoms: _538  and  _539
REMARK  214  A    between atoms: _538  and  _541
REMARK  215  A    between atoms: _541  and  _542
REMARK                            x       y       z     vdW  Elec       q    Type
REMARK                         _______ _______ _______ _____ _____    ______ ____
ROOT
ATOM      1  O   HOH     1      22.781   9.983  -6.297  0.00  0.00    +0.000 OA
ENDROOT
TORSDOF 0
REMARK  Name = ../refined-set-2016/3iue/3iue_pocket.pdb
REMARK  215 active torsions:
REMARK  status: ('A' for Active; 'I' for Inactive)
REMARK    1  A    between atoms: _1  and  _3
REMARK    2  A    between atoms: _3  and  _4
REMARK    3  A    between atoms: _3  and  _6
REMARK    4  A    between atoms: _10  and  _11
REMARK    5  A    between atoms: _16  and  _18
REMARK    6  A    between atoms: _18  and  _19
REMARK    7  A    between atoms: _18  and  _21
REMARK    8  A    between atoms: _21  and  _22
REMARK    9  A    between atoms: _25  and  _27
REMARK   10  A    between atoms: _27  and  _28
REMARK   11  A    between atoms: _27  and  _30
REMARK   12  A    between atoms: _30  and  _31
REMARK   13  A    between atoms: _31  and  _32
REMARK   14  A    between atoms: _34  and  _36
REMARK   15  A    between atoms: _36  and  _37
REMARK   16  A    between atoms: _39  and  _41
REMARK   17  A    between atoms: _41  and  _42
REMARK   18  A    between atoms: _45  and  _47
REMARK   19  A    between atoms: _47  and  _48
REMARK   20  A    between atoms: _47  and  _50
REMARK   21  A    between atoms: _50  and  _51
REMARK   22  A    between atoms: _54  and  _56
REMARK   23  A    between atoms: _56  and  _57
REMARK   24  A    between atoms: _56  and  _59
REMARK   25  A    between atoms: _59  and  _60
REMARK   26  A    between atoms: _65  and  _67
REMARK   27  A    between atoms: _67  and  _68
REMARK   28  A    between atoms: _67  and  _70
REMARK   29  A    between atoms: _70  and  _71
REMARK   30  A    between atoms: _71  and  _72
REMARK   31  A    between atoms: _75  and  _77
REMARK   32  A    between atoms: _77  and  _78
REMARK   33  A    between atoms: _80  and  _82
REMARK   34  A    between atoms: _82  and  _83
REMARK   35  A    between atoms: _82  and  _85
REMARK   36  A    between atoms: _85  and  _86
REMARK   37  A    between atoms: _91  and  _93
REMARK   38  A    between atoms: _93  and  _94
REMARK   39  A    between atoms: _93  and  _96
REMARK   40  A    between atoms: _96  and  _97
REMARK   41  A    between atoms: _100  and  _102
REMARK   42  A    between atoms: _102  and  _103
REMARK   43  A    between atoms: _106  and  _108
REMARK   44  A    between atoms: _108  and  _109
REMARK   45  A    between atoms: _108  and  _111
REMARK   46  A    between atoms: _111  and  _112
REMARK   47  A    between atoms: _115  and  _117
REMARK   48  A    between atoms: _117  and  _118
REMARK   49  A    between atoms: _117  and  _120
REMARK   50  A    between atoms: _123  and  _125
REMARK   51  A    between atoms: _125  and  _126
REMARK   52  A    between atoms: _125  and  _128
REMARK   53  A    between atoms: _128  and  _129
REMARK   54  A    between atoms: _131  and  _133
REMARK   55  A    between atoms: _133  and  _134
REMARK   56  A    between atoms: _133  and  _136
REMARK   57  A    between atoms: _136  and  _137
REMARK   58  A    between atoms: _140  and  _142
REMARK   59  A    between atoms: _142  and  _143
REMARK   60  A    between atoms: _142  and  _145
REMARK   61  A    between atoms: _145  and  _146
REMARK   62  A    between atoms: _152  and  _154
REMARK   63  A    between atoms: _154  and  _155
REMARK   64  A    between atoms: _154  and  _157
REMARK   65  A    between atoms: _157  and  _158
REMARK   66  A    between atoms: _163  and  _165
REMARK   67  A    between atoms: _165  and  _166
REMARK   68  A    between atoms: _165  and  _168
REMARK   69  A    between atoms: _168  and  _169
REMARK   70  A    between atoms: _169  and  _170
REMARK   71  A    between atoms: _175  and  _177
REMARK   72  A    between atoms: _177  and  _178
REMARK   73  A    between atoms: _177  and  _180
REMARK   74  A    between atoms: _180  and  _181
REMARK   75  A    between atoms: _187  and  _189
REMARK   76  A    between atoms: _189  and  _190
REMARK   77  A    between atoms: _189  and  _192
REMARK   78  A    between atoms: _192  and  _193
REMARK   79  A    between atoms: _198  and  _199
REMARK   80  A    between atoms: _202  and  _203
REMARK   81  A    between atoms: _208  and  _210
REMARK   82  A    between atoms: _210  and  _211
REMARK   83  A    between atoms: _210  and  _213
REMARK   84  A    between atoms: _213  and  _214
REMARK   85  A    between atoms: _214  and  _215
REMARK   86  A    between atoms: _218  and  _220
REMARK   87  A    between atoms: _220  and  _221
REMARK   88  A    between atoms: _220  and  _223
REMARK   89  A    between atoms: _223  and  _224
REMARK   90  A    between atoms: _229  and  _231
REMARK   91  A    between atoms: _231  and  _232
REMARK   92  A    between atoms: _231  and  _234
REMARK   93  A    between atoms: _234  and  _235
REMARK   94  A    between atoms: _241  and  _243
REMARK   95  A    between atoms: _243  and  _244
REMARK   96  A    between atoms: _243  and  _246
REMARK   97  A    between atoms: _249  and  _251
REMARK   98  A    between atoms: _251  and  _252
REMARK   99  A    between atoms: _251  and  _254
REMARK  100  A    between atoms: _257  and  _259
REMARK  101  A    between atoms: _259  and  _260
REMARK  102  A    between atoms: _259  and  _262
REMARK  103  A    between atoms: _262  and  _263
REMARK  104  A    between atoms: _269  and  _271
REMARK  105  A    between atoms: _271  and  _272
REMARK  106  A    between atoms: _271  and  _274
REMARK  107  A    between atoms: _274  and  _275
REMARK  108  A    between atoms: _281  and  _283
REMARK  109  A    between atoms: _283  and  _284
REMARK  110  A    between atoms: _286  and  _288
REMARK  111  A    between atoms: _288  and  _289
REMARK  112  A    between atoms: _288  and  _291
REMARK  113  A    between atoms: _291  and  _292
REMARK  114  A    between atoms: _292  and  _293
REMARK  115  A    between atoms: _296  and  _298
REMARK  116  A    between atoms: _298  and  _299
REMARK  117  A    between atoms: _298  and  _301
REMARK  118  A    between atoms: _301  and  _302
REMARK  119  A    between atoms: _302  and  _303
REMARK  120  A    between atoms: _303  and  _304
REMARK  121  A    between atoms: _304  and  _305
REMARK  122  A    between atoms: _309  and  _311
REMARK  123  A    between atoms: _311  and  _312
REMARK  124  A    between atoms: _311  and  _314
REMARK  125  A    between atoms: _314  and  _315
REMARK  126  A    between atoms: _318  and  _320
REMARK  127  A    between atoms: _320  and  _321
REMARK  128  A    between atoms: _320  and  _323
REMARK  129  A    between atoms: _323  and  _324
REMARK  130  A    between atoms: _329  and  _330
REMARK  131  A    between atoms: _332  and  _334
REMARK  132  A    between atoms: _334  and  _335
REMARK  133  A    between atoms: _334  and  _337
REMARK  134  A    between atoms: _337  and  _338
REMARK  135  A    between atoms: _338  and  _339
REMARK  136  A    between atoms: _344  and  _346
REMARK  137  A    between atoms: _346  and  _347
REMARK  138  A    between atoms: _346  and  _349
REMARK  139  A    between atoms: _349  and  _350
REMARK  140  A    between atoms: _353  and  _355
REMARK  141  A    between atoms: _355  and  _356
REMARK  142  A    between atoms: _355  and  _358
REMARK  143  A    between atoms: _358  and  _359
REMARK  144  A    between atoms: _362  and  _364
REMARK  145  A    between atoms: _364  and  _365
REMARK  146  A    between atoms: _367  and  _369
REMARK  147  A    between atoms: _369  and  _370
REMARK  148  A    between atoms: _369  and  _372
REMARK  149  A    between atoms: _376  and  _377
REMARK  150  A    between atoms: _382  and  _384
REMARK  151  A    between atoms: _384  and  _385
REMARK  152  A    between atoms: _384  and  _387
REMARK  153  A    between atoms: _387  and  _388
REMARK  154  A    between atoms: _391  and  _393
REMARK  155  A    between atoms: _393  and  _394
REMARK  156  A    between atoms: _393  and  _396
REMARK  157  A    between atoms: _399  and  _401
REMARK  158  A    between atoms: _401  and  _402
REMARK  159  A    between atoms: _401  and  _404
REMARK  160  A    between atoms: _404  and  _405
REMARK  161  A    between atoms: _405  and  _406
REMARK  162  A    between atoms: _406  and  _407
REMARK  163  A    between atoms: _416  and  _418
REMARK  164  A    between atoms: _418  and  _419
REMARK  165  A    between atoms: _418  and  _421
REMARK  166  A    between atoms: _421  and  _422
REMARK  167  A    between atoms: _425  and  _427
REMARK  168  A    between atoms: _427  and  _428
REMARK  169  A    between atoms: _431  and  _433
REMARK  170  A    between atoms: _433  and  _434
REMARK  171  A    between atoms: _433  and  _436
REMARK  172  A    between atoms: _436  and  _437
REMARK  173  A    between atoms: _437  and  _438
REMARK  174  A    between atoms: _440  and  _442
REMARK  175  A    between atoms: _442  and  _443
REMARK  176  A    between atoms: _442  and  _445
REMARK  177  A    between atoms: _445  and  _446
REMARK  178  A    between atoms: _448  and  _450
REMARK  179  A    between atoms: _450  and  _451
REMARK  180  A    between atoms: _450  and  _453
REMARK  181  A    between atoms: _453  and  _454
REMARK  182  A    between atoms: _456  and  _458
REMARK  183  A    between atoms: _458  and  _459
REMARK  184  A    between atoms: _458  and  _461
REMARK  185  A    between atoms: _461  and  _462
REMARK  186  A    between atoms: _462  and  _463
REMARK  187  A    between atoms: _463  and  _464
REMARK  188  A    between atoms: _473  and  _475
REMARK  189  A    between atoms: _475  and  _476
REMARK  190  A    between atoms: _475  and  _478
REMARK  191  A    between atoms: _478  and  _479
REMARK  192  A    between atoms: _484  and  _486
REMARK  193  A    between atoms: _486  and  _487
REMARK  194  A    between atoms: _486  and  _489
REMARK  195  A    between atoms: _489  and  _490
REMARK  196  A    between atoms: _490  and  _491
REMARK  197  A    between atoms: _491  and  _492
REMARK  198  A    between atoms: _501  and  _503
REMARK  199  A    between atoms: _503  and  _504
REMARK  200  A    between atoms: _503  and  _506
REMARK  201  A    between atoms: _506  and  _507
REMARK  202  A    between atoms: _507  and  _508
REMARK  203  A    between atoms: _508  and  _509
REMARK  204  A    between atoms: _518  and  _520
REMARK  205  A    between atoms: _520  and  _521
REMARK  206  A    between atoms: _520  and  _523
REMARK  207  A    between atoms: _523  and  _524
REMARK  208  A    between atoms: _527  and  _529
REMARK  209  A    between atoms: _529  and  _530
REMARK  210  A    between atoms: _529  and  _532
REMARK  211  A    between atoms: _532  and  _533
REMARK  212  A    between atoms: _536  and  _538
REMARK  213  A    between atoms: _538  and  _539
REMARK  214  A    between atoms: _538  and  _541
REMARK  215  A    between atoms: _541  and  _542
REMARK                            x       y       z     vdW  Elec       q    Type
REMARK                         _______ _______ _______ _____ _____    ______ ____
ROOT
ATOM      1  O   HOH     1      23.016   8.485  -3.782  0.00  0.00    +0.000 OA
ENDROOT
TORSDOF 0
REMARK  Name = ../refined-set-2016/3iue/3iue_pocket.pdb
REMARK  215 active torsions:
REMARK  status: ('A' for Active; 'I' for Inactive)
REMARK    1  A    between atoms: _1  and  _3
REMARK    2  A    between atoms: _3  and  _4
REMARK    3  A    between atoms: _3  and  _6
REMARK    4  A    between atoms: _10  and  _11
REMARK    5  A    between atoms: _16  and  _18
REMARK    6  A    between atoms: _18  and  _19
REMARK    7  A    between atoms: _18  and  _21
REMARK    8  A    between atoms: _21  and  _22
REMARK    9  A    between atoms: _25  and  _27
REMARK   10  A    between atoms: _27  and  _28
REMARK   11  A    between atoms: _27  and  _30
REMARK   12  A    between atoms: _30  and  _31
REMARK   13  A    between atoms: _31  and  _32
REMARK   14  A    between atoms: _34  and  _36
REMARK   15  A    between atoms: _36  and  _37
REMARK   16  A    between atoms: _39  and  _41
REMARK   17  A    between atoms: _41  and  _42
REMARK   18  A    between atoms: _45  and  _47
REMARK   19  A    between atoms: _47  and  _48
REMARK   20  A    between atoms: _47  and  _50
REMARK   21  A    between atoms: _50  and  _51
REMARK   22  A    between atoms: _54  and  _56
REMARK   23  A    between atoms: _56  and  _57
REMARK   24  A    between atoms: _56  and  _59
REMARK   25  A    between atoms: _59  and  _60
REMARK   26  A    between atoms: _65  and  _67
REMARK   27  A    between atoms: _67  and  _68
REMARK   28  A    between atoms: _67  and  _70
REMARK   29  A    between atoms: _70  and  _71
REMARK   30  A    between atoms: _71  and  _72
REMARK   31  A    between atoms: _75  and  _77
REMARK   32  A    between atoms: _77  and  _78
REMARK   33  A    between atoms: _80  and  _82
REMARK   34  A    between atoms: _82  and  _83
REMARK   35  A    between atoms: _82  and  _85
REMARK   36  A    between atoms: _85  and  _86
REMARK   37  A    between atoms: _91  and  _93
REMARK   38  A    between atoms: _93  and  _94
REMARK   39  A    between atoms: _93  and  _96
REMARK   40  A    between atoms: _96  and  _97
REMARK   41  A    between atoms: _100  and  _102
REMARK   42  A    between atoms: _102  and  _103
REMARK   43  A    between atoms: _106  and  _108
REMARK   44  A    between atoms: _108  and  _109
REMARK   45  A    between atoms: _108  and  _111
REMARK   46  A    between atoms: _111  and  _112
REMARK   47  A    between atoms: _115  and  _117
REMARK   48  A    between atoms: _117  and  _118
REMARK   49  A    between atoms: _117  and  _120
REMARK   50  A    between atoms: _123  and  _125
REMARK   51  A    between atoms: _125  and  _126
REMARK   52  A    between atoms: _125  and  _128
REMARK   53  A    between atoms: _128  and  _129
REMARK   54  A    between atoms: _131  and  _133
REMARK   55  A    between atoms: _133  and  _134
REMARK   56  A    between atoms: _133  and  _136
REMARK   57  A    between atoms: _136  and  _137
REMARK   58  A    between atoms: _140  and  _142
REMARK   59  A    between atoms: _142  and  _143
REMARK   60  A    between atoms: _142  and  _145
REMARK   61  A    between atoms: _145  and  _146
REMARK   62  A    between atoms: _152  and  _154
REMARK   63  A    between atoms: _154  and  _155
REMARK   64  A    between atoms: _154  and  _157
REMARK   65  A    between atoms: _157  and  _158
REMARK   66  A    between atoms: _163  and  _165
REMARK   67  A    between atoms: _165  and  _166
REMARK   68  A    between atoms: _165  and  _168
REMARK   69  A    between atoms: _168  and  _169
REMARK   70  A    between atoms: _169  and  _170
REMARK   71  A    between atoms: _175  and  _177
REMARK   72  A    between atoms: _177  and  _178
REMARK   73  A    between atoms: _177  and  _180
REMARK   74  A    between atoms: _180  and  _181
REMARK   75  A    between atoms: _187  and  _189
REMARK   76  A    between atoms: _189  and  _190
REMARK   77  A    between atoms: _189  and  _192
REMARK   78  A    between atoms: _192  and  _193
REMARK   79  A    between atoms: _198  and  _199
REMARK   80  A    between atoms: _202  and  _203
REMARK   81  A    between atoms: _208  and  _210
REMARK   82  A    between atoms: _210  and  _211
REMARK   83  A    between atoms: _210  and  _213
REMARK   84  A    between atoms: _213  and  _214
REMARK   85  A    between atoms: _214  and  _215
REMARK   86  A    between atoms: _218  and  _220
REMARK   87  A    between atoms: _220  and  _221
REMARK   88  A    between atoms: _220  and  _223
REMARK   89  A    between atoms: _223  and  _224
REMARK   90  A    between atoms: _229  and  _231
REMARK   91  A    between atoms: _231  and  _232
REMARK   92  A    between atoms: _231  and  _234
REMARK   93  A    between atoms: _234  and  _235
REMARK   94  A    between atoms: _241  and  _243
REMARK   95  A    between atoms: _243  and  _244
REMARK   96  A    between atoms: _243  and  _246
REMARK   97  A    between atoms: _249  and  _251
REMARK   98  A    between atoms: _251  and  _252
REMARK   99  A    between atoms: _251  and  _254
REMARK  100  A    between atoms: _257  and  _259
REMARK  101  A    between atoms: _259  and  _260
REMARK  102  A    between atoms: _259  and  _262
REMARK  103  A    between atoms: _262  and  _263
REMARK  104  A    between atoms: _269  and  _271
REMARK  105  A    between atoms: _271  and  _272
REMARK  106  A    between atoms: _271  and  _274
REMARK  107  A    between atoms: _274  and  _275
REMARK  108  A    between atoms: _281  and  _283
REMARK  109  A    between atoms: _283  and  _284
REMARK  110  A    between atoms: _286  and  _288
REMARK  111  A    between atoms: _288  and  _289
REMARK  112  A    between atoms: _288  and  _291
REMARK  113  A    between atoms: _291  and  _292
REMARK  114  A    between atoms: _292  and  _293
REMARK  115  A    between atoms: _296  and  _298
REMARK  116  A    between atoms: _298  and  _299
REMARK  117  A    between atoms: _298  and  _301
REMARK  118  A    between atoms: _301  and  _302
REMARK  119  A    between atoms: _302  and  _303
REMARK  120  A    between atoms: _303  and  _304
REMARK  121  A    between atoms: _304  and  _305
REMARK  122  A    between atoms: _309  and  _311
REMARK  123  A    between atoms: _311  and  _312
REMARK  124  A    between atoms: _311  and  _314
REMARK  125  A    between atoms: _314  and  _315
REMARK  126  A    between atoms: _318  and  _320
REMARK  127  A    between atoms: _320  and  _321
REMARK  128  A    between atoms: _320  and  _323
REMARK  129  A    between atoms: _323  and  _324
REMARK  130  A    between atoms: _329  and  _330
REMARK  131  A    between atoms: _332  and  _334
REMARK  132  A    between atoms: _334  and  _335
REMARK  133  A    between atoms: _334  and  _337
REMARK  134  A    between atoms: _337  and  _338
REMARK  135  A    between atoms: _338  and  _339
REMARK  136  A    between atoms: _344  and  _346
REMARK  137  A    between atoms: _346  and  _347
REMARK  138  A    between atoms: _346  and  _349
REMARK  139  A    between atoms: _349  and  _350
REMARK  140  A    between atoms: _353  and  _355
REMARK  141  A    between atoms: _355  and  _356
REMARK  142  A    between atoms: _355  and  _358
REMARK  143  A    between atoms: _358  and  _359
REMARK  144  A    between atoms: _362  and  _364
REMARK  145  A    between atoms: _364  and  _365
REMARK  146  A    between atoms: _367  and  _369
REMARK  147  A    between atoms: _369  and  _370
REMARK  148  A    between atoms: _369  and  _372
REMARK  149  A    between atoms: _376  and  _377
REMARK  150  A    between atoms: _382  and  _384
REMARK  151  A    between atoms: _384  and  _385
REMARK  152  A    between atoms: _384  and  _387
REMARK  153  A    between atoms: _387  and  _388
REMARK  154  A    between atoms: _391  and  _393
REMARK  155  A    between atoms: _393  and  _394
REMARK  156  A    between atoms: _393  and  _396
REMARK  157  A    between atoms: _399  and  _401
REMARK  158  A    between atoms: _401  and  _402
REMARK  159  A    between atoms: _401  and  _404
REMARK  160  A    between atoms: _404  and  _405
REMARK  161  A    between atoms: _405  and  _406
REMARK  162  A    between atoms: _406  and  _407
REMARK  163  A    between atoms: _416  and  _418
REMARK  164  A    between atoms: _418  and  _419
REMARK  165  A    between atoms: _418  and  _421
REMARK  166  A    between atoms: _421  and  _422
REMARK  167  A    between atoms: _425  and  _427
REMARK  168  A    between atoms: _427  and  _428
REMARK  169  A    between atoms: _431  and  _433
REMARK  170  A    between atoms: _433  and  _434
REMARK  171  A    between atoms: _433  and  _436
REMARK  172  A    between atoms: _436  and  _437
REMARK  173  A    between atoms: _437  and  _438
REMARK  174  A    between atoms: _440  and  _442
REMARK  175  A    between atoms: _442  and  _443
REMARK  176  A    between atoms: _442  and  _445
REMARK  177  A    between atoms: _445  and  _446
REMARK  178  A    between atoms: _448  and  _450
REMARK  179  A    between atoms: _450  and  _451
REMARK  180  A    between atoms: _450  and  _453
REMARK  181  A    between atoms: _453  and  _454
REMARK  182  A    between atoms: _456  and  _458
REMARK  183  A    between atoms: _458  and  _459
REMARK  184  A    between atoms: _458  and  _461
REMARK  185  A    between atoms: _461  and  _462
REMARK  186  A    between atoms: _462  and  _463
REMARK  187  A    between atoms: _463  and  _464
REMARK  188  A    between atoms: _473  and  _475
REMARK  189  A    between atoms: _475  and  _476
REMARK  190  A    between atoms: _475  and  _478
REMARK  191  A    between atoms: _478  and  _479
REMARK  192  A    between atoms: _484  and  _486
REMARK  193  A    between atoms: _486  and  _487
REMARK  194  A    between atoms: _486  and  _489
REMARK  195  A    between atoms: _489  and  _490
REMARK  196  A    between atoms: _490  and  _491
REMARK  197  A    between atoms: _491  and  _492
REMARK  198  A    between atoms: _501  and  _503
REMARK  199  A    between atoms: _503  and  _504
REMARK  200  A    between atoms: _503  and  _506
REMARK  201  A    between atoms: _506  and  _507
REMARK  202  A    between atoms: _507  and  _508
REMARK  203  A    between atoms: _508  and  _509
REMARK  204  A    between atoms: _518  and  _520
REMARK  205  A    between atoms: _520  and  _521
REMARK  206  A    between atoms: _520  and  _523
REMARK  207  A    between atoms: _523  and  _524
REMARK  208  A    between atoms: _527  and  _529
REMARK  209  A    between atoms: _529  and  _530
REMARK  210  A    between atoms: _529  and  _532
REMARK  211  A    between atoms: _532  and  _533
REMARK  212  A    between atoms: _536  and  _538
REMARK  213  A    between atoms: _538  and  _539
REMARK  214  A    between atoms: _538  and  _541
REMARK  215  A    between atoms: _541  and  _542
REMARK                            x       y       z     vdW  Elec       q    Type
REMARK                         _______ _______ _______ _____ _____    ______ ____
ROOT
ATOM      1  O   HOH     1      18.780  18.764   6.814  0.00  0.00    +0.000 OA
ENDROOT
TORSDOF 0
REMARK  Name = ../refined-set-2016/3iue/3iue_pocket.pdb
REMARK  215 active torsions:
REMARK  status: ('A' for Active; 'I' for Inactive)
REMARK    1  A    between atoms: _1  and  _3
REMARK    2  A    between atoms: _3  and  _4
REMARK    3  A    between atoms: _3  and  _6
REMARK    4  A    between atoms: _10  and  _11
REMARK    5  A    between atoms: _16  and  _18
REMARK    6  A    between atoms: _18  and  _19
REMARK    7  A    between atoms: _18  and  _21
REMARK    8  A    between atoms: _21  and  _22
REMARK    9  A    between atoms: _25  and  _27
REMARK   10  A    between atoms: _27  and  _28
REMARK   11  A    between atoms: _27  and  _30
REMARK   12  A    between atoms: _30  and  _31
REMARK   13  A    between atoms: _31  and  _32
REMARK   14  A    between atoms: _34  and  _36
REMARK   15  A    between atoms: _36  and  _37
REMARK   16  A    between atoms: _39  and  _41
REMARK   17  A    between atoms: _41  and  _42
REMARK   18  A    between atoms: _45  and  _47
REMARK   19  A    between atoms: _47  and  _48
REMARK   20  A    between atoms: _47  and  _50
REMARK   21  A    between atoms: _50  and  _51
REMARK   22  A    between atoms: _54  and  _56
REMARK   23  A    between atoms: _56  and  _57
REMARK   24  A    between atoms: _56  and  _59
REMARK   25  A    between atoms: _59  and  _60
REMARK   26  A    between atoms: _65  and  _67
REMARK   27  A    between atoms: _67  and  _68
REMARK   28  A    between atoms: _67  and  _70
REMARK   29  A    between atoms: _70  and  _71
REMARK   30  A    between atoms: _71  and  _72
REMARK   31  A    between atoms: _75  and  _77
REMARK   32  A    between atoms: _77  and  _78
REMARK   33  A    between atoms: _80  and  _82
REMARK   34  A    between atoms: _82  and  _83
REMARK   35  A    between atoms: _82  and  _85
REMARK   36  A    between atoms: _85  and  _86
REMARK   37  A    between atoms: _91  and  _93
REMARK   38  A    between atoms: _93  and  _94
REMARK   39  A    between atoms: _93  and  _96
REMARK   40  A    between atoms: _96  and  _97
REMARK   41  A    between atoms: _100  and  _102
REMARK   42  A    between atoms: _102  and  _103
REMARK   43  A    between atoms: _106  and  _108
REMARK   44  A    between atoms: _108  and  _109
REMARK   45  A    between atoms: _108  and  _111
REMARK   46  A    between atoms: _111  and  _112
REMARK   47  A    between atoms: _115  and  _117
REMARK   48  A    between atoms: _117  and  _118
REMARK   49  A    between atoms: _117  and  _120
REMARK   50  A    between atoms: _123  and  _125
REMARK   51  A    between atoms: _125  and  _126
REMARK   52  A    between atoms: _125  and  _128
REMARK   53  A    between atoms: _128  and  _129
REMARK   54  A    between atoms: _131  and  _133
REMARK   55  A    between atoms: _133  and  _134
REMARK   56  A    between atoms: _133  and  _136
REMARK   57  A    between atoms: _136  and  _137
REMARK   58  A    between atoms: _140  and  _142
REMARK   59  A    between atoms: _142  and  _143
REMARK   60  A    between atoms: _142  and  _145
REMARK   61  A    between atoms: _145  and  _146
REMARK   62  A    between atoms: _152  and  _154
REMARK   63  A    between atoms: _154  and  _155
REMARK   64  A    between atoms: _154  and  _157
REMARK   65  A    between atoms: _157  and  _158
REMARK   66  A    between atoms: _163  and  _165
REMARK   67  A    between atoms: _165  and  _166
REMARK   68  A    between atoms: _165  and  _168
REMARK   69  A    between atoms: _168  and  _169
REMARK   70  A    between atoms: _169  and  _170
REMARK   71  A    between atoms: _175  and  _177
REMARK   72  A    between atoms: _177  and  _178
REMARK   73  A    between atoms: _177  and  _180
REMARK   74  A    between atoms: _180  and  _181
REMARK   75  A    between atoms: _187  and  _189
REMARK   76  A    between atoms: _189  and  _190
REMARK   77  A    between atoms: _189  and  _192
REMARK   78  A    between atoms: _192  and  _193
REMARK   79  A    between atoms: _198  and  _199
REMARK   80  A    between atoms: _202  and  _203
REMARK   81  A    between atoms: _208  and  _210
REMARK   82  A    between atoms: _210  and  _211
REMARK   83  A    between atoms: _210  and  _213
REMARK   84  A    between atoms: _213  and  _214
REMARK   85  A    between atoms: _214  and  _215
REMARK   86  A    between atoms: _218  and  _220
REMARK   87  A    between atoms: _220  and  _221
REMARK   88  A    between atoms: _220  and  _223
REMARK   89  A    between atoms: _223  and  _224
REMARK   90  A    between atoms: _229  and  _231
REMARK   91  A    between atoms: _231  and  _232
REMARK   92  A    between atoms: _231  and  _234
REMARK   93  A    between atoms: _234  and  _235
REMARK   94  A    between atoms: _241  and  _243
REMARK   95  A    between atoms: _243  and  _244
REMARK   96  A    between atoms: _243  and  _246
REMARK   97  A    between atoms: _249  and  _251
REMARK   98  A    between atoms: _251  and  _252
REMARK   99  A    between atoms: _251  and  _254
REMARK  100  A    between atoms: _257  and  _259
REMARK  101  A    between atoms: _259  and  _260
REMARK  102  A    between atoms: _259  and  _262
REMARK  103  A    between atoms: _262  and  _263
REMARK  104  A    between atoms: _269  and  _271
REMARK  105  A    between atoms: _271  and  _272
REMARK  106  A    between atoms: _271  and  _274
REMARK  107  A    between atoms: _274  and  _275
REMARK  108  A    between atoms: _281  and  _283
REMARK  109  A    between atoms: _283  and  _284
REMARK  110  A    between atoms: _286  and  _288
REMARK  111  A    between atoms: _288  and  _289
REMARK  112  A    between atoms: _288  and  _291
REMARK  113  A    between atoms: _291  and  _292
REMARK  114  A    between atoms: _292  and  _293
REMARK  115  A    between atoms: _296  and  _298
REMARK  116  A    between atoms: _298  and  _299
REMARK  117  A    between atoms: _298  and  _301
REMARK  118  A    between atoms: _301  and  _302
REMARK  119  A    between atoms: _302  and  _303
REMARK  120  A    between atoms: _303  and  _304
REMARK  121  A    between atoms: _304  and  _305
REMARK  122  A    between atoms: _309  and  _311
REMARK  123  A    between atoms: _311  and  _312
REMARK  124  A    between atoms: _311  and  _314
REMARK  125  A    between atoms: _314  and  _315
REMARK  126  A    between atoms: _318  and  _320
REMARK  127  A    between atoms: _320  and  _321
REMARK  128  A    between atoms: _320  and  _323
REMARK  129  A    between atoms: _323  and  _324
REMARK  130  A    between atoms: _329  and  _330
REMARK  131  A    between atoms: _332  and  _334
REMARK  132  A    between atoms: _334  and  _335
REMARK  133  A    between atoms: _334  and  _337
REMARK  134  A    between atoms: _337  and  _338
REMARK  135  A    between atoms: _338  and  _339
REMARK  136  A    between atoms: _344  and  _346
REMARK  137  A    between atoms: _346  and  _347
REMARK  138  A    between atoms: _346  and  _349
REMARK  139  A    between atoms: _349  and  _350
REMARK  140  A    between atoms: _353  and  _355
REMARK  141  A    between atoms: _355  and  _356
REMARK  142  A    between atoms: _355  and  _358
REMARK  143  A    between atoms: _358  and  _359
REMARK  144  A    between atoms: _362  and  _364
REMARK  145  A    between atoms: _364  and  _365
REMARK  146  A    between atoms: _367  and  _369
REMARK  147  A    between atoms: _369  and  _370
REMARK  148  A    between atoms: _369  and  _372
REMARK  149  A    between atoms: _376  and  _377
REMARK  150  A    between atoms: _382  and  _384
REMARK  151  A    between atoms: _384  and  _385
REMARK  152  A    between atoms: _384  and  _387
REMARK  153  A    between atoms: _387  and  _388
REMARK  154  A    between atoms: _391  and  _393
REMARK  155  A    between atoms: _393  and  _394
REMARK  156  A    between atoms: _393  and  _396
REMARK  157  A    between atoms: _399  and  _401
REMARK  158  A    between atoms: _401  and  _402
REMARK  159  A    between atoms: _401  and  _404
REMARK  160  A    between atoms: _404  and  _405
REMARK  161  A    between atoms: _405  and  _406
REMARK  162  A    between atoms: _406  and  _407
REMARK  163  A    between atoms: _416  and  _418
REMARK  164  A    between atoms: _418  and  _419
REMARK  165  A    between atoms: _418  and  _421
REMARK  166  A    between atoms: _421  and  _422
REMARK  167  A    between atoms: _425  and  _427
REMARK  168  A    between atoms: _427  and  _428
REMARK  169  A    between atoms: _431  and  _433
REMARK  170  A    between atoms: _433  and  _434
REMARK  171  A    between atoms: _433  and  _436
REMARK  172  A    between atoms: _436  and  _437
REMARK  173  A    between atoms: _437  and  _438
REMARK  174  A    between atoms: _440  and  _442
REMARK  175  A    between atoms: _442  and  _443
REMARK  176  A    between atoms: _442  and  _445
REMARK  177  A    between atoms: _445  and  _446
REMARK  178  A    between atoms: _448  and  _450
REMARK  179  A    between atoms: _450  and  _451
REMARK  180  A    between atoms: _450  and  _453
REMARK  181  A    between atoms: _453  and  _454
REMARK  182  A    between atoms: _456  and  _458
REMARK  183  A    between atoms: _458  and  _459
REMARK  184  A    between atoms: _458  and  _461
REMARK  185  A    between atoms: _461  and  _462
REMARK  186  A    between atoms: _462  and  _463
REMARK  187  A    between atoms: _463  and  _464
REMARK  188  A    between atoms: _473  and  _475
REMARK  189  A    between atoms: _475  and  _476
REMARK  190  A    between atoms: _475  and  _478
REMARK  191  A    between atoms: _478  and  _479
REMARK  192  A    between atoms: _484  and  _486
REMARK  193  A    between atoms: _486  and  _487
REMARK  194  A    between atoms: _486  and  _489
REMARK  195  A    between atoms: _489  and  _490
REMARK  196  A    between atoms: _490  and  _491
REMARK  197  A    between atoms: _491  and  _492
REMARK  198  A    between atoms: _501  and  _503
REMARK  199  A    between atoms: _503  and  _504
REMARK  200  A    between atoms: _503  and  _506
REMARK  201  A    between atoms: _506  and  _507
REMARK  202  A    between atoms: _507  and  _508
REMARK  203  A    between atoms: _508  and  _509
REMARK  204  A    between atoms: _518  and  _520
REMARK  205  A    between atoms: _520  and  _521
REMARK  206  A    between atoms: _520  and  _523
REMARK  207  A    between atoms: _523  and  _524
REMARK  208  A    between atoms: _527  and  _529
REMARK  209  A    between atoms: _529  and  _530
REMARK  210  A    between atoms: _529  and  _532
REMARK  211  A    between atoms: _532  and  _533
REMARK  212  A    between atoms: _536  and  _538
REMARK  213  A    between atoms: _538  and  _539
REMARK  214  A    between atoms: _538  and  _541
REMARK  215  A    between atoms: _541  and  _542
REMARK                            x       y       z     vdW  Elec       q    Type
REMARK                         _______ _______ _______ _____ _____    ______ ____
ROOT
ATOM      1  O   HOH     1      12.851   3.353  -8.137  0.00  0.00    +0.000 OA
ENDROOT
TORSDOF 0
REMARK  Name = ../refined-set-2016/3iue/3iue_pocket.pdb
REMARK  215 active torsions:
REMARK  status: ('A' for Active; 'I' for Inactive)
REMARK    1  A    between atoms: _1  and  _3
REMARK    2  A    between atoms: _3  and  _4
REMARK    3  A    between atoms: _3  and  _6
REMARK    4  A    between atoms: _10  and  _11
REMARK    5  A    between atoms: _16  and  _18
REMARK    6  A    between atoms: _18  and  _19
REMARK    7  A    between atoms: _18  and  _21
REMARK    8  A    between atoms: _21  and  _22
REMARK    9  A    between atoms: _25  and  _27
REMARK   10  A    between atoms: _27  and  _28
REMARK   11  A    between atoms: _27  and  _30
REMARK   12  A    between atoms: _30  and  _31
REMARK   13  A    between atoms: _31  and  _32
REMARK   14  A    between atoms: _34  and  _36
REMARK   15  A    between atoms: _36  and  _37
REMARK   16  A    between atoms: _39  and  _41
REMARK   17  A    between atoms: _41  and  _42
REMARK   18  A    between atoms: _45  and  _47
REMARK   19  A    between atoms: _47  and  _48
REMARK   20  A    between atoms: _47  and  _50
REMARK   21  A    between atoms: _50  and  _51
REMARK   22  A    between atoms: _54  and  _56
REMARK   23  A    between atoms: _56  and  _57
REMARK   24  A    between atoms: _56  and  _59
REMARK   25  A    between atoms: _59  and  _60
REMARK   26  A    between atoms: _65  and  _67
REMARK   27  A    between atoms: _67  and  _68
REMARK   28  A    between atoms: _67  and  _70
REMARK   29  A    between atoms: _70  and  _71
REMARK   30  A    between atoms: _71  and  _72
REMARK   31  A    between atoms: _75  and  _77
REMARK   32  A    between atoms: _77  and  _78
REMARK   33  A    between atoms: _80  and  _82
REMARK   34  A    between atoms: _82  and  _83
REMARK   35  A    between atoms: _82  and  _85
REMARK   36  A    between atoms: _85  and  _86
REMARK   37  A    between atoms: _91  and  _93
REMARK   38  A    between atoms: _93  and  _94
REMARK   39  A    between atoms: _93  and  _96
REMARK   40  A    between atoms: _96  and  _97
REMARK   41  A    between atoms: _100  and  _102
REMARK   42  A    between atoms: _102  and  _103
REMARK   43  A    between atoms: _106  and  _108
REMARK   44  A    between atoms: _108  and  _109
REMARK   45  A    between atoms: _108  and  _111
REMARK   46  A    between atoms: _111  and  _112
REMARK   47  A    between atoms: _115  and  _117
REMARK   48  A    between atoms: _117  and  _118
REMARK   49  A    between atoms: _117  and  _120
REMARK   50  A    between atoms: _123  and  _125
REMARK   51  A    between atoms: _125  and  _126
REMARK   52  A    between atoms: _125  and  _128
REMARK   53  A    between atoms: _128  and  _129
REMARK   54  A    between atoms: _131  and  _133
REMARK   55  A    between atoms: _133  and  _134
REMARK   56  A    between atoms: _133  and  _136
REMARK   57  A    between atoms: _136  and  _137
REMARK   58  A    between atoms: _140  and  _142
REMARK   59  A    between atoms: _142  and  _143
REMARK   60  A    between atoms: _142  and  _145
REMARK   61  A    between atoms: _145  and  _146
REMARK   62  A    between atoms: _152  and  _154
REMARK   63  A    between atoms: _154  and  _155
REMARK   64  A    between atoms: _154  and  _157
REMARK   65  A    between atoms: _157  and  _158
REMARK   66  A    between atoms: _163  and  _165
REMARK   67  A    between atoms: _165  and  _166
REMARK   68  A    between atoms: _165  and  _168
REMARK   69  A    between atoms: _168  and  _169
REMARK   70  A    between atoms: _169  and  _170
REMARK   71  A    between atoms: _175  and  _177
REMARK   72  A    between atoms: _177  and  _178
REMARK   73  A    between atoms: _177  and  _180
REMARK   74  A    between atoms: _180  and  _181
REMARK   75  A    between atoms: _187  and  _189
REMARK   76  A    between atoms: _189  and  _190
REMARK   77  A    between atoms: _189  and  _192
REMARK   78  A    between atoms: _192  and  _193
REMARK   79  A    between atoms: _198  and  _199
REMARK   80  A    between atoms: _202  and  _203
REMARK   81  A    between atoms: _208  and  _210
REMARK   82  A    between atoms: _210  and  _211
REMARK   83  A    between atoms: _210  and  _213
REMARK   84  A    between atoms: _213  and  _214
REMARK   85  A    between atoms: _214  and  _215
REMARK   86  A    between atoms: _218  and  _220
REMARK   87  A    between atoms: _220  and  _221
REMARK   88  A    between atoms: _220  and  _223
REMARK   89  A    between atoms: _223  and  _224
REMARK   90  A    between atoms: _229  and  _231
REMARK   91  A    between atoms: _231  and  _232
REMARK   92  A    between atoms: _231  and  _234
REMARK   93  A    between atoms: _234  and  _235
REMARK   94  A    between atoms: _241  and  _243
REMARK   95  A    between atoms: _243  and  _244
REMARK   96  A    between atoms: _243  and  _246
REMARK   97  A    between atoms: _249  and  _251
REMARK   98  A    between atoms: _251  and  _252
REMARK   99  A    between atoms: _251  and  _254
REMARK  100  A    between atoms: _257  and  _259
REMARK  101  A    between atoms: _259  and  _260
REMARK  102  A    between atoms: _259  and  _262
REMARK  103  A    between atoms: _262  and  _263
REMARK  104  A    between atoms: _269  and  _271
REMARK  105  A    between atoms: _271  and  _272
REMARK  106  A    between atoms: _271  and  _274
REMARK  107  A    between atoms: _274  and  _275
REMARK  108  A    between atoms: _281  and  _283
REMARK  109  A    between atoms: _283  and  _284
REMARK  110  A    between atoms: _286  and  _288
REMARK  111  A    between atoms: _288  and  _289
REMARK  112  A    between atoms: _288  and  _291
REMARK  113  A    between atoms: _291  and  _292
REMARK  114  A    between atoms: _292  and  _293
REMARK  115  A    between atoms: _296  and  _298
REMARK  116  A    between atoms: _298  and  _299
REMARK  117  A    between atoms: _298  and  _301
REMARK  118  A    between atoms: _301  and  _302
REMARK  119  A    between atoms: _302  and  _303
REMARK  120  A    between atoms: _303  and  _304
REMARK  121  A    between atoms: _304  and  _305
REMARK  122  A    between atoms: _309  and  _311
REMARK  123  A    between atoms: _311  and  _312
REMARK  124  A    between atoms: _311  and  _314
REMARK  125  A    between atoms: _314  and  _315
REMARK  126  A    between atoms: _318  and  _320
REMARK  127  A    between atoms: _320  and  _321
REMARK  128  A    between atoms: _320  and  _323
REMARK  129  A    between atoms: _323  and  _324
REMARK  130  A    between atoms: _329  and  _330
REMARK  131  A    between atoms: _332  and  _334
REMARK  132  A    between atoms: _334  and  _335
REMARK  133  A    between atoms: _334  and  _337
REMARK  134  A    between atoms: _337  and  _338
REMARK  135  A    between atoms: _338  and  _339
REMARK  136  A    between atoms: _344  and  _346
REMARK  137  A    between atoms: _346  and  _347
REMARK  138  A    between atoms: _346  and  _349
REMARK  139  A    between atoms: _349  and  _350
REMARK  140  A    between atoms: _353  and  _355
REMARK  141  A    between atoms: _355  and  _356
REMARK  142  A    between atoms: _355  and  _358
REMARK  143  A    between atoms: _358  and  _359
REMARK  144  A    between atoms: _362  and  _364
REMARK  145  A    between atoms: _364  and  _365
REMARK  146  A    between atoms: _367  and  _369
REMARK  147  A    between atoms: _369  and  _370
REMARK  148  A    between atoms: _369  and  _372
REMARK  149  A    between atoms: _376  and  _377
REMARK  150  A    between atoms: _382  and  _384
REMARK  151  A    between atoms: _384  and  _385
REMARK  152  A    between atoms: _384  and  _387
REMARK  153  A    between atoms: _387  and  _388
REMARK  154  A    between atoms: _391  and  _393
REMARK  155  A    between atoms: _393  and  _394
REMARK  156  A    between atoms: _393  and  _396
REMARK  157  A    between atoms: _399  and  _401
REMARK  158  A    between atoms: _401  and  _402
REMARK  159  A    between atoms: _401  and  _404
REMARK  160  A    between atoms: _404  and  _405
REMARK  161  A    between atoms: _405  and  _406
REMARK  162  A    between atoms: _406  and  _407
REMARK  163  A    between atoms: _416  and  _418
REMARK  164  A    between atoms: _418  and  _419
REMARK  165  A    between atoms: _418  and  _421
REMARK  166  A    between atoms: _421  and  _422
REMARK  167  A    between atoms: _425  and  _427
REMARK  168  A    between atoms: _427  and  _428
REMARK  169  A    between atoms: _431  and  _433
REMARK  170  A    between atoms: _433  and  _434
REMARK  171  A    between atoms: _433  and  _436
REMARK  172  A    between atoms: _436  and  _437
REMARK  173  A    between atoms: _437  and  _438
REMARK  174  A    between atoms: _440  and  _442
REMARK  175  A    between atoms: _442  and  _443
REMARK  176  A    between atoms: _442  and  _445
REMARK  177  A    between atoms: _445  and  _446
REMARK  178  A    between atoms: _448  and  _450
REMARK  179  A    between atoms: _450  and  _451
REMARK  180  A    between atoms: _450  and  _453
REMARK  181  A    between atoms: _453  and  _454
REMARK  182  A    between atoms: _456  and  _458
REMARK  183  A    between atoms: _458  and  _459
REMARK  184  A    between atoms: _458  and  _461
REMARK  185  A    between atoms: _461  and  _462
REMARK  186  A    between atoms: _462  and  _463
REMARK  187  A    between atoms: _463  and  _464
REMARK  188  A    between atoms: _473  and  _475
REMARK  189  A    between atoms: _475  and  _476
REMARK  190  A    between atoms: _475  and  _478
REMARK  191  A    between atoms: _478  and  _479
REMARK  192  A    between atoms: _484  and  _486
REMARK  193  A    between atoms: _486  and  _487
REMARK  194  A    between atoms: _486  and  _489
REMARK  195  A    between atoms: _489  and  _490
REMARK  196  A    between atoms: _490  and  _491
REMARK  197  A    between atoms: _491  and  _492
REMARK  198  A    between atoms: _501  and  _503
REMARK  199  A    between atoms: _503  and  _504
REMARK  200  A    between atoms: _503  and  _506
REMARK  201  A    between atoms: _506  and  _507
REMARK  202  A    between atoms: _507  and  _508
REMARK  203  A    between atoms: _508  and  _509
REMARK  204  A    between atoms: _518  and  _520
REMARK  205  A    between atoms: _520  and  _521
REMARK  206  A    between atoms: _520  and  _523
REMARK  207  A    between atoms: _523  and  _524
REMARK  208  A    between atoms: _527  and  _529
REMARK  209  A    between atoms: _529  and  _530
REMARK  210  A    between atoms: _529  and  _532
REMARK  211  A    between atoms: _532  and  _533
REMARK  212  A    between atoms: _536  and  _538
REMARK  213  A    between atoms: _538  and  _539
REMARK  214  A    between atoms: _538  and  _541
REMARK  215  A    between atoms: _541  and  _542
REMARK                            x       y       z     vdW  Elec       q    Type
REMARK                         _______ _______ _______ _____ _____    ______ ____
ROOT
ATOM      1  O   HOH     1      22.424  17.413  -3.629  0.00  0.00    +0.000 OA
ENDROOT
TORSDOF 0
REMARK  Name = ../refined-set-2016/3iue/3iue_pocket.pdb
REMARK  215 active torsions:
REMARK  status: ('A' for Active; 'I' for Inactive)
REMARK    1  A    between atoms: _1  and  _3
REMARK    2  A    between atoms: _3  and  _4
REMARK    3  A    between atoms: _3  and  _6
REMARK    4  A    between atoms: _10  and  _11
REMARK    5  A    between atoms: _16  and  _18
REMARK    6  A    between atoms: _18  and  _19
REMARK    7  A    between atoms: _18  and  _21
REMARK    8  A    between atoms: _21  and  _22
REMARK    9  A    between atoms: _25  and  _27
REMARK   10  A    between atoms: _27  and  _28
REMARK   11  A    between atoms: _27  and  _30
REMARK   12  A    between atoms: _30  and  _31
REMARK   13  A    between atoms: _31  and  _32
REMARK   14  A    between atoms: _34  and  _36
REMARK   15  A    between atoms: _36  and  _37
REMARK   16  A    between atoms: _39  and  _41
REMARK   17  A    between atoms: _41  and  _42
REMARK   18  A    between atoms: _45  and  _47
REMARK   19  A    between atoms: _47  and  _48
REMARK   20  A    between atoms: _47  and  _50
REMARK   21  A    between atoms: _50  and  _51
REMARK   22  A    between atoms: _54  and  _56
REMARK   23  A    between atoms: _56  and  _57
REMARK   24  A    between atoms: _56  and  _59
REMARK   25  A    between atoms: _59  and  _60
REMARK   26  A    between atoms: _65  and  _67
REMARK   27  A    between atoms: _67  and  _68
REMARK   28  A    between atoms: _67  and  _70
REMARK   29  A    between atoms: _70  and  _71
REMARK   30  A    between atoms: _71  and  _72
REMARK   31  A    between atoms: _75  and  _77
REMARK   32  A    between atoms: _77  and  _78
REMARK   33  A    between atoms: _80  and  _82
REMARK   34  A    between atoms: _82  and  _83
REMARK   35  A    between atoms: _82  and  _85
REMARK   36  A    between atoms: _85  and  _86
REMARK   37  A    between atoms: _91  and  _93
REMARK   38  A    between atoms: _93  and  _94
REMARK   39  A    between atoms: _93  and  _96
REMARK   40  A    between atoms: _96  and  _97
REMARK   41  A    between atoms: _100  and  _102
REMARK   42  A    between atoms: _102  and  _103
REMARK   43  A    between atoms: _106  and  _108
REMARK   44  A    between atoms: _108  and  _109
REMARK   45  A    between atoms: _108  and  _111
REMARK   46  A    between atoms: _111  and  _112
REMARK   47  A    between atoms: _115  and  _117
REMARK   48  A    between atoms: _117  and  _118
REMARK   49  A    between atoms: _117  and  _120
REMARK   50  A    between atoms: _123  and  _125
REMARK   51  A    between atoms: _125  and  _126
REMARK   52  A    between atoms: _125  and  _128
REMARK   53  A    between atoms: _128  and  _129
REMARK   54  A    between atoms: _131  and  _133
REMARK   55  A    between atoms: _133  and  _134
REMARK   56  A    between atoms: _133  and  _136
REMARK   57  A    between atoms: _136  and  _137
REMARK   58  A    between atoms: _140  and  _142
REMARK   59  A    between atoms: _142  and  _143
REMARK   60  A    between atoms: _142  and  _145
REMARK   61  A    between atoms: _145  and  _146
REMARK   62  A    between atoms: _152  and  _154
REMARK   63  A    between atoms: _154  and  _155
REMARK   64  A    between atoms: _154  and  _157
REMARK   65  A    between atoms: _157  and  _158
REMARK   66  A    between atoms: _163  and  _165
REMARK   67  A    between atoms: _165  and  _166
REMARK   68  A    between atoms: _165  and  _168
REMARK   69  A    between atoms: _168  and  _169
REMARK   70  A    between atoms: _169  and  _170
REMARK   71  A    between atoms: _175  and  _177
REMARK   72  A    between atoms: _177  and  _178
REMARK   73  A    between atoms: _177  and  _180
REMARK   74  A    between atoms: _180  and  _181
REMARK   75  A    between atoms: _187  and  _189
REMARK   76  A    between atoms: _189  and  _190
REMARK   77  A    between atoms: _189  and  _192
REMARK   78  A    between atoms: _192  and  _193
REMARK   79  A    between atoms: _198  and  _199
REMARK   80  A    between atoms: _202  and  _203
REMARK   81  A    between atoms: _208  and  _210
REMARK   82  A    between atoms: _210  and  _211
REMARK   83  A    between atoms: _210  and  _213
REMARK   84  A    between atoms: _213  and  _214
REMARK   85  A    between atoms: _214  and  _215
REMARK   86  A    between atoms: _218  and  _220
REMARK   87  A    between atoms: _220  and  _221
REMARK   88  A    between atoms: _220  and  _223
REMARK   89  A    between atoms: _223  and  _224
REMARK   90  A    between atoms: _229  and  _231
REMARK   91  A    between atoms: _231  and  _232
REMARK   92  A    between atoms: _231  and  _234
REMARK   93  A    between atoms: _234  and  _235
REMARK   94  A    between atoms: _241  and  _243
REMARK   95  A    between atoms: _243  and  _244
REMARK   96  A    between atoms: _243  and  _246
REMARK   97  A    between atoms: _249  and  _251
REMARK   98  A    between atoms: _251  and  _252
REMARK   99  A    between atoms: _251  and  _254
REMARK  100  A    between atoms: _257  and  _259
REMARK  101  A    between atoms: _259  and  _260
REMARK  102  A    between atoms: _259  and  _262
REMARK  103  A    between atoms: _262  and  _263
REMARK  104  A    between atoms: _269  and  _271
REMARK  105  A    between atoms: _271  and  _272
REMARK  106  A    between atoms: _271  and  _274
REMARK  107  A    between atoms: _274  and  _275
REMARK  108  A    between atoms: _281  and  _283
REMARK  109  A    between atoms: _283  and  _284
REMARK  110  A    between atoms: _286  and  _288
REMARK  111  A    between atoms: _288  and  _289
REMARK  112  A    between atoms: _288  and  _291
REMARK  113  A    between atoms: _291  and  _292
REMARK  114  A    between atoms: _292  and  _293
REMARK  115  A    between atoms: _296  and  _298
REMARK  116  A    between atoms: _298  and  _299
REMARK  117  A    between atoms: _298  and  _301
REMARK  118  A    between atoms: _301  and  _302
REMARK  119  A    between atoms: _302  and  _303
REMARK  120  A    between atoms: _303  and  _304
REMARK  121  A    between atoms: _304  and  _305
REMARK  122  A    between atoms: _309  and  _311
REMARK  123  A    between atoms: _311  and  _312
REMARK  124  A    between atoms: _311  and  _314
REMARK  125  A    between atoms: _314  and  _315
REMARK  126  A    between atoms: _318  and  _320
REMARK  127  A    between atoms: _320  and  _321
REMARK  128  A    between atoms: _320  and  _323
REMARK  129  A    between atoms: _323  and  _324
REMARK  130  A    between atoms: _329  and  _330
REMARK  131  A    between atoms: _332  and  _334
REMARK  132  A    between atoms: _334  and  _335
REMARK  133  A    between atoms: _334  and  _337
REMARK  134  A    between atoms: _337  and  _338
REMARK  135  A    between atoms: _338  and  _339
REMARK  136  A    between atoms: _344  and  _346
REMARK  137  A    between atoms: _346  and  _347
REMARK  138  A    between atoms: _346  and  _349
REMARK  139  A    between atoms: _349  and  _350
REMARK  140  A    between atoms: _353  and  _355
REMARK  141  A    between atoms: _355  and  _356
REMARK  142  A    between atoms: _355  and  _358
REMARK  143  A    between atoms: _358  and  _359
REMARK  144  A    between atoms: _362  and  _364
REMARK  145  A    between atoms: _364  and  _365
REMARK  146  A    between atoms: _367  and  _369
REMARK  147  A    between atoms: _369  and  _370
REMARK  148  A    between atoms: _369  and  _372
REMARK  149  A    between atoms: _376  and  _377
REMARK  150  A    between atoms: _382  and  _384
REMARK  151  A    between atoms: _384  and  _385
REMARK  152  A    between atoms: _384  and  _387
REMARK  153  A    between atoms: _387  and  _388
REMARK  154  A    between atoms: _391  and  _393
REMARK  155  A    between atoms: _393  and  _394
REMARK  156  A    between atoms: _393  and  _396
REMARK  157  A    between atoms: _399  and  _401
REMARK  158  A    between atoms: _401  and  _402
REMARK  159  A    between atoms: _401  and  _404
REMARK  160  A    between atoms: _404  and  _405
REMARK  161  A    between atoms: _405  and  _406
REMARK  162  A    between atoms: _406  and  _407
REMARK  163  A    between atoms: _416  and  _418
REMARK  164  A    between atoms: _418  and  _419
REMARK  165  A    between atoms: _418  and  _421
REMARK  166  A    between atoms: _421  and  _422
REMARK  167  A    between atoms: _425  and  _427
REMARK  168  A    between atoms: _427  and  _428
REMARK  169  A    between atoms: _431  and  _433
REMARK  170  A    between atoms: _433  and  _434
REMARK  171  A    between atoms: _433  and  _436
REMARK  172  A    between atoms: _436  and  _437
REMARK  173  A    between atoms: _437  and  _438
REMARK  174  A    between atoms: _440  and  _442
REMARK  175  A    between atoms: _442  and  _443
REMARK  176  A    between atoms: _442  and  _445
REMARK  177  A    between atoms: _445  and  _446
REMARK  178  A    between atoms: _448  and  _450
REMARK  179  A    between atoms: _450  and  _451
REMARK  180  A    between atoms: _450  and  _453
REMARK  181  A    between atoms: _453  and  _454
REMARK  182  A    between atoms: _456  and  _458
REMARK  183  A    between atoms: _458  and  _459
REMARK  184  A    between atoms: _458  and  _461
REMARK  185  A    between atoms: _461  and  _462
REMARK  186  A    between atoms: _462  and  _463
REMARK  187  A    between atoms: _463  and  _464
REMARK  188  A    between atoms: _473  and  _475
REMARK  189  A    between atoms: _475  and  _476
REMARK  190  A    between atoms: _475  and  _478
REMARK  191  A    between atoms: _478  and  _479
REMARK  192  A    between atoms: _484  and  _486
REMARK  193  A    between atoms: _486  and  _487
REMARK  194  A    between atoms: _486  and  _489
REMARK  195  A    between atoms: _489  and  _490
REMARK  196  A    between atoms: _490  and  _491
REMARK  197  A    between atoms: _491  and  _492
REMARK  198  A    between atoms: _501  and  _503
REMARK  199  A    between atoms: _503  and  _504
REMARK  200  A    between atoms: _503  and  _506
REMARK  201  A    between atoms: _506  and  _507
REMARK  202  A    between atoms: _507  and  _508
REMARK  203  A    between atoms: _508  and  _509
REMARK  204  A    between atoms: _518  and  _520
REMARK  205  A    between atoms: _520  and  _521
REMARK  206  A    between atoms: _520  and  _523
REMARK  207  A    between atoms: _523  and  _524
REMARK  208  A    between atoms: _527  and  _529
REMARK  209  A    between atoms: _529  and  _530
REMARK  210  A    between atoms: _529  and  _532
REMARK  211  A    between atoms: _532  and  _533
REMARK  212  A    between atoms: _536  and  _538
REMARK  213  A    between atoms: _538  and  _539
REMARK  214  A    between atoms: _538  and  _541
REMARK  215  A    between atoms: _541  and  _542
REMARK                            x       y       z     vdW  Elec       q    Type
REMARK                         _______ _______ _______ _____ _____    ______ ____
ROOT
ATOM      1  O   HOH     1      13.562   5.617 -11.087  0.00  0.00    +0.000 OA
ENDROOT
TORSDOF 0
REMARK  Name = ../refined-set-2016/3iue/3iue_pocket.pdb
REMARK  215 active torsions:
REMARK  status: ('A' for Active; 'I' for Inactive)
REMARK    1  A    between atoms: _1  and  _3
REMARK    2  A    between atoms: _3  and  _4
REMARK    3  A    between atoms: _3  and  _6
REMARK    4  A    between atoms: _10  and  _11
REMARK    5  A    between atoms: _16  and  _18
REMARK    6  A    between atoms: _18  and  _19
REMARK    7  A    between atoms: _18  and  _21
REMARK    8  A    between atoms: _21  and  _22
REMARK    9  A    between atoms: _25  and  _27
REMARK   10  A    between atoms: _27  and  _28
REMARK   11  A    between atoms: _27  and  _30
REMARK   12  A    between atoms: _30  and  _31
REMARK   13  A    between atoms: _31  and  _32
REMARK   14  A    between atoms: _34  and  _36
REMARK   15  A    between atoms: _36  and  _37
REMARK   16  A    between atoms: _39  and  _41
REMARK   17  A    between atoms: _41  and  _42
REMARK   18  A    between atoms: _45  and  _47
REMARK   19  A    between atoms: _47  and  _48
REMARK   20  A    between atoms: _47  and  _50
REMARK   21  A    between atoms: _50  and  _51
REMARK   22  A    between atoms: _54  and  _56
REMARK   23  A    between atoms: _56  and  _57
REMARK   24  A    between atoms: _56  and  _59
REMARK   25  A    between atoms: _59  and  _60
REMARK   26  A    between atoms: _65  and  _67
REMARK   27  A    between atoms: _67  and  _68
REMARK   28  A    between atoms: _67  and  _70
REMARK   29  A    between atoms: _70  and  _71
REMARK   30  A    between atoms: _71  and  _72
REMARK   31  A    between atoms: _75  and  _77
REMARK   32  A    between atoms: _77  and  _78
REMARK   33  A    between atoms: _80  and  _82
REMARK   34  A    between atoms: _82  and  _83
REMARK   35  A    between atoms: _82  and  _85
REMARK   36  A    between atoms: _85  and  _86
REMARK   37  A    between atoms: _91  and  _93
REMARK   38  A    between atoms: _93  and  _94
REMARK   39  A    between atoms: _93  and  _96
REMARK   40  A    between atoms: _96  and  _97
REMARK   41  A    between atoms: _100  and  _102
REMARK   42  A    between atoms: _102  and  _103
REMARK   43  A    between atoms: _106  and  _108
REMARK   44  A    between atoms: _108  and  _109
REMARK   45  A    between atoms: _108  and  _111
REMARK   46  A    between atoms: _111  and  _112
REMARK   47  A    between atoms: _115  and  _117
REMARK   48  A    between atoms: _117  and  _118
REMARK   49  A    between atoms: _117  and  _120
REMARK   50  A    between atoms: _123  and  _125
REMARK   51  A    between atoms: _125  and  _126
REMARK   52  A    between atoms: _125  and  _128
REMARK   53  A    between atoms: _128  and  _129
REMARK   54  A    between atoms: _131  and  _133
REMARK   55  A    between atoms: _133  and  _134
REMARK   56  A    between atoms: _133  and  _136
REMARK   57  A    between atoms: _136  and  _137
REMARK   58  A    between atoms: _140  and  _142
REMARK   59  A    between atoms: _142  and  _143
REMARK   60  A    between atoms: _142  and  _145
REMARK   61  A    between atoms: _145  and  _146
REMARK   62  A    between atoms: _152  and  _154
REMARK   63  A    between atoms: _154  and  _155
REMARK   64  A    between atoms: _154  and  _157
REMARK   65  A    between atoms: _157  and  _158
REMARK   66  A    between atoms: _163  and  _165
REMARK   67  A    between atoms: _165  and  _166
REMARK   68  A    between atoms: _165  and  _168
REMARK   69  A    between atoms: _168  and  _169
REMARK   70  A    between atoms: _169  and  _170
REMARK   71  A    between atoms: _175  and  _177
REMARK   72  A    between atoms: _177  and  _178
REMARK   73  A    between atoms: _177  and  _180
REMARK   74  A    between atoms: _180  and  _181
REMARK   75  A    between atoms: _187  and  _189
REMARK   76  A    between atoms: _189  and  _190
REMARK   77  A    between atoms: _189  and  _192
REMARK   78  A    between atoms: _192  and  _193
REMARK   79  A    between atoms: _198  and  _199
REMARK   80  A    between atoms: _202  and  _203
REMARK   81  A    between atoms: _208  and  _210
REMARK   82  A    between atoms: _210  and  _211
REMARK   83  A    between atoms: _210  and  _213
REMARK   84  A    between atoms: _213  and  _214
REMARK   85  A    between atoms: _214  and  _215
REMARK   86  A    between atoms: _218  and  _220
REMARK   87  A    between atoms: _220  and  _221
REMARK   88  A    between atoms: _220  and  _223
REMARK   89  A    between atoms: _223  and  _224
REMARK   90  A    between atoms: _229  and  _231
REMARK   91  A    between atoms: _231  and  _232
REMARK   92  A    between atoms: _231  and  _234
REMARK   93  A    between atoms: _234  and  _235
REMARK   94  A    between atoms: _241  and  _243
REMARK   95  A    between atoms: _243  and  _244
REMARK   96  A    between atoms: _243  and  _246
REMARK   97  A    between atoms: _249  and  _251
REMARK   98  A    between atoms: _251  and  _252
REMARK   99  A    between atoms: _251  and  _254
REMARK  100  A    between atoms: _257  and  _259
REMARK  101  A    between atoms: _259  and  _260
REMARK  102  A    between atoms: _259  and  _262
REMARK  103  A    between atoms: _262  and  _263
REMARK  104  A    between atoms: _269  and  _271
REMARK  105  A    between atoms: _271  and  _272
REMARK  106  A    between atoms: _271  and  _274
REMARK  107  A    between atoms: _274  and  _275
REMARK  108  A    between atoms: _281  and  _283
REMARK  109  A    between atoms: _283  and  _284
REMARK  110  A    between atoms: _286  and  _288
REMARK  111  A    between atoms: _288  and  _289
REMARK  112  A    between atoms: _288  and  _291
REMARK  113  A    between atoms: _291  and  _292
REMARK  114  A    between atoms: _292  and  _293
REMARK  115  A    between atoms: _296  and  _298
REMARK  116  A    between atoms: _298  and  _299
REMARK  117  A    between atoms: _298  and  _301
REMARK  118  A    between atoms: _301  and  _302
REMARK  119  A    between atoms: _302  and  _303
REMARK  120  A    between atoms: _303  and  _304
REMARK  121  A    between atoms: _304  and  _305
REMARK  122  A    between atoms: _309  and  _311
REMARK  123  A    between atoms: _311  and  _312
REMARK  124  A    between atoms: _311  and  _314
REMARK  125  A    between atoms: _314  and  _315
REMARK  126  A    between atoms: _318  and  _320
REMARK  127  A    between atoms: _320  and  _321
REMARK  128  A    between atoms: _320  and  _323
REMARK  129  A    between atoms: _323  and  _324
REMARK  130  A    between atoms: _329  and  _330
REMARK  131  A    between atoms: _332  and  _334
REMARK  132  A    between atoms: _334  and  _335
REMARK  133  A    between atoms: _334  and  _337
REMARK  134  A    between atoms: _337  and  _338
REMARK  135  A    between atoms: _338  and  _339
REMARK  136  A    between atoms: _344  and  _346
REMARK  137  A    between atoms: _346  and  _347
REMARK  138  A    between atoms: _346  and  _349
REMARK  139  A    between atoms: _349  and  _350
REMARK  140  A    between atoms: _353  and  _355
REMARK  141  A    between atoms: _355  and  _356
REMARK  142  A    between atoms: _355  and  _358
REMARK  143  A    between atoms: _358  and  _359
REMARK  144  A    between atoms: _362  and  _364
REMARK  145  A    between atoms: _364  and  _365
REMARK  146  A    between atoms: _367  and  _369
REMARK  147  A    between atoms: _369  and  _370
REMARK  148  A    between atoms: _369  and  _372
REMARK  149  A    between atoms: _376  and  _377
REMARK  150  A    between atoms: _382  and  _384
REMARK  151  A    between atoms: _384  and  _385
REMARK  152  A    between atoms: _384  and  _387
REMARK  153  A    between atoms: _387  and  _388
REMARK  154  A    between atoms: _391  and  _393
REMARK  155  A    between atoms: _393  and  _394
REMARK  156  A    between atoms: _393  and  _396
REMARK  157  A    between atoms: _399  and  _401
REMARK  158  A    between atoms: _401  and  _402
REMARK  159  A    between atoms: _401  and  _404
REMARK  160  A    between atoms: _404  and  _405
REMARK  161  A    between atoms: _405  and  _406
REMARK  162  A    between atoms: _406  and  _407
REMARK  163  A    between atoms: _416  and  _418
REMARK  164  A    between atoms: _418  and  _419
REMARK  165  A    between atoms: _418  and  _421
REMARK  166  A    between atoms: _421  and  _422
REMARK  167  A    between atoms: _425  and  _427
REMARK  168  A    between atoms: _427  and  _428
REMARK  169  A    between atoms: _431  and  _433
REMARK  170  A    between atoms: _433  and  _434
REMARK  171  A    between atoms: _433  and  _436
REMARK  172  A    between atoms: _436  and  _437
REMARK  173  A    between atoms: _437  and  _438
REMARK  174  A    between atoms: _440  and  _442
REMARK  175  A    between atoms: _442  and  _443
REMARK  176  A    between atoms: _442  and  _445
REMARK  177  A    between atoms: _445  and  _446
REMARK  178  A    between atoms: _448  and  _450
REMARK  179  A    between atoms: _450  and  _451
REMARK  180  A    between atoms: _450  and  _453
REMARK  181  A    between atoms: _453  and  _454
REMARK  182  A    between atoms: _456  and  _458
REMARK  183  A    between atoms: _458  and  _459
REMARK  184  A    between atoms: _458  and  _461
REMARK  185  A    between atoms: _461  and  _462
REMARK  186  A    between atoms: _462  and  _463
REMARK  187  A    between atoms: _463  and  _464
REMARK  188  A    between atoms: _473  and  _475
REMARK  189  A    between atoms: _475  and  _476
REMARK  190  A    between atoms: _475  and  _478
REMARK  191  A    between atoms: _478  and  _479
REMARK  192  A    between atoms: _484  and  _486
REMARK  193  A    between atoms: _486  and  _487
REMARK  194  A    between atoms: _486  and  _489
REMARK  195  A    between atoms: _489  and  _490
REMARK  196  A    between atoms: _490  and  _491
REMARK  197  A    between atoms: _491  and  _492
REMARK  198  A    between atoms: _501  and  _503
REMARK  199  A    between atoms: _503  and  _504
REMARK  200  A    between atoms: _503  and  _506
REMARK  201  A    between atoms: _506  and  _507
REMARK  202  A    between atoms: _507  and  _508
REMARK  203  A    between atoms: _508  and  _509
REMARK  204  A    between atoms: _518  and  _520
REMARK  205  A    between atoms: _520  and  _521
REMARK  206  A    between atoms: _520  and  _523
REMARK  207  A    between atoms: _523  and  _524
REMARK  208  A    between atoms: _527  and  _529
REMARK  209  A    between atoms: _529  and  _530
REMARK  210  A    between atoms: _529  and  _532
REMARK  211  A    between atoms: _532  and  _533
REMARK  212  A    between atoms: _536  and  _538
REMARK  213  A    between atoms: _538  and  _539
REMARK  214  A    between atoms: _538  and  _541
REMARK  215  A    between atoms: _541  and  _542
REMARK                            x       y       z     vdW  Elec       q    Type
REMARK                         _______ _______ _______ _____ _____    ______ ____
ROOT
ATOM      1  O   HOH     1      12.477   8.605   1.573  0.00  0.00    +0.000 OA
ENDROOT
TORSDOF 0
REMARK  Name = ../refined-set-2016/3iue/3iue_pocket.pdb
REMARK  215 active torsions:
REMARK  status: ('A' for Active; 'I' for Inactive)
REMARK    1  A    between atoms: _1  and  _3
REMARK    2  A    between atoms: _3  and  _4
REMARK    3  A    between atoms: _3  and  _6
REMARK    4  A    between atoms: _10  and  _11
REMARK    5  A    between atoms: _16  and  _18
REMARK    6  A    between atoms: _18  and  _19
REMARK    7  A    between atoms: _18  and  _21
REMARK    8  A    between atoms: _21  and  _22
REMARK    9  A    between atoms: _25  and  _27
REMARK   10  A    between atoms: _27  and  _28
REMARK   11  A    between atoms: _27  and  _30
REMARK   12  A    between atoms: _30  and  _31
REMARK   13  A    between atoms: _31  and  _32
REMARK   14  A    between atoms: _34  and  _36
REMARK   15  A    between atoms: _36  and  _37
REMARK   16  A    between atoms: _39  and  _41
REMARK   17  A    between atoms: _41  and  _42
REMARK   18  A    between atoms: _45  and  _47
REMARK   19  A    between atoms: _47  and  _48
REMARK   20  A    between atoms: _47  and  _50
REMARK   21  A    between atoms: _50  and  _51
REMARK   22  A    between atoms: _54  and  _56
REMARK   23  A    between atoms: _56  and  _57
REMARK   24  A    between atoms: _56  and  _59
REMARK   25  A    between atoms: _59  and  _60
REMARK   26  A    between atoms: _65  and  _67
REMARK   27  A    between atoms: _67  and  _68
REMARK   28  A    between atoms: _67  and  _70
REMARK   29  A    between atoms: _70  and  _71
REMARK   30  A    between atoms: _71  and  _72
REMARK   31  A    between atoms: _75  and  _77
REMARK   32  A    between atoms: _77  and  _78
REMARK   33  A    between atoms: _80  and  _82
REMARK   34  A    between atoms: _82  and  _83
REMARK   35  A    between atoms: _82  and  _85
REMARK   36  A    between atoms: _85  and  _86
REMARK   37  A    between atoms: _91  and  _93
REMARK   38  A    between atoms: _93  and  _94
REMARK   39  A    between atoms: _93  and  _96
REMARK   40  A    between atoms: _96  and  _97
REMARK   41  A    between atoms: _100  and  _102
REMARK   42  A    between atoms: _102  and  _103
REMARK   43  A    between atoms: _106  and  _108
REMARK   44  A    between atoms: _108  and  _109
REMARK   45  A    between atoms: _108  and  _111
REMARK   46  A    between atoms: _111  and  _112
REMARK   47  A    between atoms: _115  and  _117
REMARK   48  A    between atoms: _117  and  _118
REMARK   49  A    between atoms: _117  and  _120
REMARK   50  A    between atoms: _123  and  _125
REMARK   51  A    between atoms: _125  and  _126
REMARK   52  A    between atoms: _125  and  _128
REMARK   53  A    between atoms: _128  and  _129
REMARK   54  A    between atoms: _131  and  _133
REMARK   55  A    between atoms: _133  and  _134
REMARK   56  A    between atoms: _133  and  _136
REMARK   57  A    between atoms: _136  and  _137
REMARK   58  A    between atoms: _140  and  _142
REMARK   59  A    between atoms: _142  and  _143
REMARK   60  A    between atoms: _142  and  _145
REMARK   61  A    between atoms: _145  and  _146
REMARK   62  A    between atoms: _152  and  _154
REMARK   63  A    between atoms: _154  and  _155
REMARK   64  A    between atoms: _154  and  _157
REMARK   65  A    between atoms: _157  and  _158
REMARK   66  A    between atoms: _163  and  _165
REMARK   67  A    between atoms: _165  and  _166
REMARK   68  A    between atoms: _165  and  _168
REMARK   69  A    between atoms: _168  and  _169
REMARK   70  A    between atoms: _169  and  _170
REMARK   71  A    between atoms: _175  and  _177
REMARK   72  A    between atoms: _177  and  _178
REMARK   73  A    between atoms: _177  and  _180
REMARK   74  A    between atoms: _180  and  _181
REMARK   75  A    between atoms: _187  and  _189
REMARK   76  A    between atoms: _189  and  _190
REMARK   77  A    between atoms: _189  and  _192
REMARK   78  A    between atoms: _192  and  _193
REMARK   79  A    between atoms: _198  and  _199
REMARK   80  A    between atoms: _202  and  _203
REMARK   81  A    between atoms: _208  and  _210
REMARK   82  A    between atoms: _210  and  _211
REMARK   83  A    between atoms: _210  and  _213
REMARK   84  A    between atoms: _213  and  _214
REMARK   85  A    between atoms: _214  and  _215
REMARK   86  A    between atoms: _218  and  _220
REMARK   87  A    between atoms: _220  and  _221
REMARK   88  A    between atoms: _220  and  _223
REMARK   89  A    between atoms: _223  and  _224
REMARK   90  A    between atoms: _229  and  _231
REMARK   91  A    between atoms: _231  and  _232
REMARK   92  A    between atoms: _231  and  _234
REMARK   93  A    between atoms: _234  and  _235
REMARK   94  A    between atoms: _241  and  _243
REMARK   95  A    between atoms: _243  and  _244
REMARK   96  A    between atoms: _243  and  _246
REMARK   97  A    between atoms: _249  and  _251
REMARK   98  A    between atoms: _251  and  _252
REMARK   99  A    between atoms: _251  and  _254
REMARK  100  A    between atoms: _257  and  _259
REMARK  101  A    between atoms: _259  and  _260
REMARK  102  A    between atoms: _259  and  _262
REMARK  103  A    between atoms: _262  and  _263
REMARK  104  A    between atoms: _269  and  _271
REMARK  105  A    between atoms: _271  and  _272
REMARK  106  A    between atoms: _271  and  _274
REMARK  107  A    between atoms: _274  and  _275
REMARK  108  A    between atoms: _281  and  _283
REMARK  109  A    between atoms: _283  and  _284
REMARK  110  A    between atoms: _286  and  _288
REMARK  111  A    between atoms: _288  and  _289
REMARK  112  A    between atoms: _288  and  _291
REMARK  113  A    between atoms: _291  and  _292
REMARK  114  A    between atoms: _292  and  _293
REMARK  115  A    between atoms: _296  and  _298
REMARK  116  A    between atoms: _298  and  _299
REMARK  117  A    between atoms: _298  and  _301
REMARK  118  A    between atoms: _301  and  _302
REMARK  119  A    between atoms: _302  and  _303
REMARK  120  A    between atoms: _303  and  _304
REMARK  121  A    between atoms: _304  and  _305
REMARK  122  A    between atoms: _309  and  _311
REMARK  123  A    between atoms: _311  and  _312
REMARK  124  A    between atoms: _311  and  _314
REMARK  125  A    between atoms: _314  and  _315
REMARK  126  A    between atoms: _318  and  _320
REMARK  127  A    between atoms: _320  and  _321
REMARK  128  A    between atoms: _320  and  _323
REMARK  129  A    between atoms: _323  and  _324
REMARK  130  A    between atoms: _329  and  _330
REMARK  131  A    between atoms: _332  and  _334
REMARK  132  A    between atoms: _334  and  _335
REMARK  133  A    between atoms: _334  and  _337
REMARK  134  A    between atoms: _337  and  _338
REMARK  135  A    between atoms: _338  and  _339
REMARK  136  A    between atoms: _344  and  _346
REMARK  137  A    between atoms: _346  and  _347
REMARK  138  A    between atoms: _346  and  _349
REMARK  139  A    between atoms: _349  and  _350
REMARK  140  A    between atoms: _353  and  _355
REMARK  141  A    between atoms: _355  and  _356
REMARK  142  A    between atoms: _355  and  _358
REMARK  143  A    between atoms: _358  and  _359
REMARK  144  A    between atoms: _362  and  _364
REMARK  145  A    between atoms: _364  and  _365
REMARK  146  A    between atoms: _367  and  _369
REMARK  147  A    between atoms: _369  and  _370
REMARK  148  A    between atoms: _369  and  _372
REMARK  149  A    between atoms: _376  and  _377
REMARK  150  A    between atoms: _382  and  _384
REMARK  151  A    between atoms: _384  and  _385
REMARK  152  A    between atoms: _384  and  _387
REMARK  153  A    between atoms: _387  and  _388
REMARK  154  A    between atoms: _391  and  _393
REMARK  155  A    between atoms: _393  and  _394
REMARK  156  A    between atoms: _393  and  _396
REMARK  157  A    between atoms: _399  and  _401
REMARK  158  A    between atoms: _401  and  _402
REMARK  159  A    between atoms: _401  and  _404
REMARK  160  A    between atoms: _404  and  _405
REMARK  161  A    between atoms: _405  and  _406
REMARK  162  A    between atoms: _406  and  _407
REMARK  163  A    between atoms: _416  and  _418
REMARK  164  A    between atoms: _418  and  _419
REMARK  165  A    between atoms: _418  and  _421
REMARK  166  A    between atoms: _421  and  _422
REMARK  167  A    between atoms: _425  and  _427
REMARK  168  A    between atoms: _427  and  _428
REMARK  169  A    between atoms: _431  and  _433
REMARK  170  A    between atoms: _433  and  _434
REMARK  171  A    between atoms: _433  and  _436
REMARK  172  A    between atoms: _436  and  _437
REMARK  173  A    between atoms: _437  and  _438
REMARK  174  A    between atoms: _440  and  _442
REMARK  175  A    between atoms: _442  and  _443
REMARK  176  A    between atoms: _442  and  _445
REMARK  177  A    between atoms: _445  and  _446
REMARK  178  A    between atoms: _448  and  _450
REMARK  179  A    between atoms: _450  and  _451
REMARK  180  A    between atoms: _450  and  _453
REMARK  181  A    between atoms: _453  and  _454
REMARK  182  A    between atoms: _456  and  _458
REMARK  183  A    between atoms: _458  and  _459
REMARK  184  A    between atoms: _458  and  _461
REMARK  185  A    between atoms: _461  and  _462
REMARK  186  A    between atoms: _462  and  _463
REMARK  187  A    between atoms: _463  and  _464
REMARK  188  A    between atoms: _473  and  _475
REMARK  189  A    between atoms: _475  and  _476
REMARK  190  A    between atoms: _475  and  _478
REMARK  191  A    between atoms: _478  and  _479
REMARK  192  A    between atoms: _484  and  _486
REMARK  193  A    between atoms: _486  and  _487
REMARK  194  A    between atoms: _486  and  _489
REMARK  195  A    between atoms: _489  and  _490
REMARK  196  A    between atoms: _490  and  _491
REMARK  197  A    between atoms: _491  and  _492
REMARK  198  A    between atoms: _501  and  _503
REMARK  199  A    between atoms: _503  and  _504
REMARK  200  A    between atoms: _503  and  _506
REMARK  201  A    between atoms: _506  and  _507
REMARK  202  A    between atoms: _507  and  _508
REMARK  203  A    between atoms: _508  and  _509
REMARK  204  A    between atoms: _518  and  _520
REMARK  205  A    between atoms: _520  and  _521
REMARK  206  A    between atoms: _520  and  _523
REMARK  207  A    between atoms: _523  and  _524
REMARK  208  A    between atoms: _527  and  _529
REMARK  209  A    between atoms: _529  and  _530
REMARK  210  A    between atoms: _529  and  _532
REMARK  211  A    between atoms: _532  and  _533
REMARK  212  A    between atoms: _536  and  _538
REMARK  213  A    between atoms: _538  and  _539
REMARK  214  A    between atoms: _538  and  _541
REMARK  215  A    between atoms: _541  and  _542
REMARK                            x       y       z     vdW  Elec       q    Type
REMARK                         _______ _______ _______ _____ _____    ______ ____
ROOT
ATOM      1  O   HOH     1       8.528   8.807  -8.917  0.00  0.00    +0.000 OA
ENDROOT
TORSDOF 0
REMARK  Name = ../refined-set-2016/3iue/3iue_pocket.pdb
REMARK  215 active torsions:
REMARK  status: ('A' for Active; 'I' for Inactive)
REMARK    1  A    between atoms: _1  and  _3
REMARK    2  A    between atoms: _3  and  _4
REMARK    3  A    between atoms: _3  and  _6
REMARK    4  A    between atoms: _10  and  _11
REMARK    5  A    between atoms: _16  and  _18
REMARK    6  A    between atoms: _18  and  _19
REMARK    7  A    between atoms: _18  and  _21
REMARK    8  A    between atoms: _21  and  _22
REMARK    9  A    between atoms: _25  and  _27
REMARK   10  A    between atoms: _27  and  _28
REMARK   11  A    between atoms: _27  and  _30
REMARK   12  A    between atoms: _30  and  _31
REMARK   13  A    between atoms: _31  and  _32
REMARK   14  A    between atoms: _34  and  _36
REMARK   15  A    between atoms: _36  and  _37
REMARK   16  A    between atoms: _39  and  _41
REMARK   17  A    between atoms: _41  and  _42
REMARK   18  A    between atoms: _45  and  _47
REMARK   19  A    between atoms: _47  and  _48
REMARK   20  A    between atoms: _47  and  _50
REMARK   21  A    between atoms: _50  and  _51
REMARK   22  A    between atoms: _54  and  _56
REMARK   23  A    between atoms: _56  and  _57
REMARK   24  A    between atoms: _56  and  _59
REMARK   25  A    between atoms: _59  and  _60
REMARK   26  A    between atoms: _65  and  _67
REMARK   27  A    between atoms: _67  and  _68
REMARK   28  A    between atoms: _67  and  _70
REMARK   29  A    between atoms: _70  and  _71
REMARK   30  A    between atoms: _71  and  _72
REMARK   31  A    between atoms: _75  and  _77
REMARK   32  A    between atoms: _77  and  _78
REMARK   33  A    between atoms: _80  and  _82
REMARK   34  A    between atoms: _82  and  _83
REMARK   35  A    between atoms: _82  and  _85
REMARK   36  A    between atoms: _85  and  _86
REMARK   37  A    between atoms: _91  and  _93
REMARK   38  A    between atoms: _93  and  _94
REMARK   39  A    between atoms: _93  and  _96
REMARK   40  A    between atoms: _96  and  _97
REMARK   41  A    between atoms: _100  and  _102
REMARK   42  A    between atoms: _102  and  _103
REMARK   43  A    between atoms: _106  and  _108
REMARK   44  A    between atoms: _108  and  _109
REMARK   45  A    between atoms: _108  and  _111
REMARK   46  A    between atoms: _111  and  _112
REMARK   47  A    between atoms: _115  and  _117
REMARK   48  A    between atoms: _117  and  _118
REMARK   49  A    between atoms: _117  and  _120
REMARK   50  A    between atoms: _123  and  _125
REMARK   51  A    between atoms: _125  and  _126
REMARK   52  A    between atoms: _125  and  _128
REMARK   53  A    between atoms: _128  and  _129
REMARK   54  A    between atoms: _131  and  _133
REMARK   55  A    between atoms: _133  and  _134
REMARK   56  A    between atoms: _133  and  _136
REMARK   57  A    between atoms: _136  and  _137
REMARK   58  A    between atoms: _140  and  _142
REMARK   59  A    between atoms: _142  and  _143
REMARK   60  A    between atoms: _142  and  _145
REMARK   61  A    between atoms: _145  and  _146
REMARK   62  A    between atoms: _152  and  _154
REMARK   63  A    between atoms: _154  and  _155
REMARK   64  A    between atoms: _154  and  _157
REMARK   65  A    between atoms: _157  and  _158
REMARK   66  A    between atoms: _163  and  _165
REMARK   67  A    between atoms: _165  and  _166
REMARK   68  A    between atoms: _165  and  _168
REMARK   69  A    between atoms: _168  and  _169
REMARK   70  A    between atoms: _169  and  _170
REMARK   71  A    between atoms: _175  and  _177
REMARK   72  A    between atoms: _177  and  _178
REMARK   73  A    between atoms: _177  and  _180
REMARK   74  A    between atoms: _180  and  _181
REMARK   75  A    between atoms: _187  and  _189
REMARK   76  A    between atoms: _189  and  _190
REMARK   77  A    between atoms: _189  and  _192
REMARK   78  A    between atoms: _192  and  _193
REMARK   79  A    between atoms: _198  and  _199
REMARK   80  A    between atoms: _202  and  _203
REMARK   81  A    between atoms: _208  and  _210
REMARK   82  A    between atoms: _210  and  _211
REMARK   83  A    between atoms: _210  and  _213
REMARK   84  A    between atoms: _213  and  _214
REMARK   85  A    between atoms: _214  and  _215
REMARK   86  A    between atoms: _218  and  _220
REMARK   87  A    between atoms: _220  and  _221
REMARK   88  A    between atoms: _220  and  _223
REMARK   89  A    between atoms: _223  and  _224
REMARK   90  A    between atoms: _229  and  _231
REMARK   91  A    between atoms: _231  and  _232
REMARK   92  A    between atoms: _231  and  _234
REMARK   93  A    between atoms: _234  and  _235
REMARK   94  A    between atoms: _241  and  _243
REMARK   95  A    between atoms: _243  and  _244
REMARK   96  A    between atoms: _243  and  _246
REMARK   97  A    between atoms: _249  and  _251
REMARK   98  A    between atoms: _251  and  _252
REMARK   99  A    between atoms: _251  and  _254
REMARK  100  A    between atoms: _257  and  _259
REMARK  101  A    between atoms: _259  and  _260
REMARK  102  A    between atoms: _259  and  _262
REMARK  103  A    between atoms: _262  and  _263
REMARK  104  A    between atoms: _269  and  _271
REMARK  105  A    between atoms: _271  and  _272
REMARK  106  A    between atoms: _271  and  _274
REMARK  107  A    between atoms: _274  and  _275
REMARK  108  A    between atoms: _281  and  _283
REMARK  109  A    between atoms: _283  and  _284
REMARK  110  A    between atoms: _286  and  _288
REMARK  111  A    between atoms: _288  and  _289
REMARK  112  A    between atoms: _288  and  _291
REMARK  113  A    between atoms: _291  and  _292
REMARK  114  A    between atoms: _292  and  _293
REMARK  115  A    between atoms: _296  and  _298
REMARK  116  A    between atoms: _298  and  _299
REMARK  117  A    between atoms: _298  and  _301
REMARK  118  A    between atoms: _301  and  _302
REMARK  119  A    between atoms: _302  and  _303
REMARK  120  A    between atoms: _303  and  _304
REMARK  121  A    between atoms: _304  and  _305
REMARK  122  A    between atoms: _309  and  _311
REMARK  123  A    between atoms: _311  and  _312
REMARK  124  A    between atoms: _311  and  _314
REMARK  125  A    between atoms: _314  and  _315
REMARK  126  A    between atoms: _318  and  _320
REMARK  127  A    between atoms: _320  and  _321
REMARK  128  A    between atoms: _320  and  _323
REMARK  129  A    between atoms: _323  and  _324
REMARK  130  A    between atoms: _329  and  _330
REMARK  131  A    between atoms: _332  and  _334
REMARK  132  A    between atoms: _334  and  _335
REMARK  133  A    between atoms: _334  and  _337
REMARK  134  A    between atoms: _337  and  _338
REMARK  135  A    between atoms: _338  and  _339
REMARK  136  A    between atoms: _344  and  _346
REMARK  137  A    between atoms: _346  and  _347
REMARK  138  A    between atoms: _346  and  _349
REMARK  139  A    between atoms: _349  and  _350
REMARK  140  A    between atoms: _353  and  _355
REMARK  141  A    between atoms: _355  and  _356
REMARK  142  A    between atoms: _355  and  _358
REMARK  143  A    between atoms: _358  and  _359
REMARK  144  A    between atoms: _362  and  _364
REMARK  145  A    between atoms: _364  and  _365
REMARK  146  A    between atoms: _367  and  _369
REMARK  147  A    between atoms: _369  and  _370
REMARK  148  A    between atoms: _369  and  _372
REMARK  149  A    between atoms: _376  and  _377
REMARK  150  A    between atoms: _382  and  _384
REMARK  151  A    between atoms: _384  and  _385
REMARK  152  A    between atoms: _384  and  _387
REMARK  153  A    between atoms: _387  and  _388
REMARK  154  A    between atoms: _391  and  _393
REMARK  155  A    between atoms: _393  and  _394
REMARK  156  A    between atoms: _393  and  _396
REMARK  157  A    between atoms: _399  and  _401
REMARK  158  A    between atoms: _401  and  _402
REMARK  159  A    between atoms: _401  and  _404
REMARK  160  A    between atoms: _404  and  _405
REMARK  161  A    between atoms: _405  and  _406
REMARK  162  A    between atoms: _406  and  _407
REMARK  163  A    between atoms: _416  and  _418
REMARK  164  A    between atoms: _418  and  _419
REMARK  165  A    between atoms: _418  and  _421
REMARK  166  A    between atoms: _421  and  _422
REMARK  167  A    between atoms: _425  and  _427
REMARK  168  A    between atoms: _427  and  _428
REMARK  169  A    between atoms: _431  and  _433
REMARK  170  A    between atoms: _433  and  _434
REMARK  171  A    between atoms: _433  and  _436
REMARK  172  A    between atoms: _436  and  _437
REMARK  173  A    between atoms: _437  and  _438
REMARK  174  A    between atoms: _440  and  _442
REMARK  175  A    between atoms: _442  and  _443
REMARK  176  A    between atoms: _442  and  _445
REMARK  177  A    between atoms: _445  and  _446
REMARK  178  A    between atoms: _448  and  _450
REMARK  179  A    between atoms: _450  and  _451
REMARK  180  A    between atoms: _450  and  _453
REMARK  181  A    between atoms: _453  and  _454
REMARK  182  A    between atoms: _456  and  _458
REMARK  183  A    between atoms: _458  and  _459
REMARK  184  A    between atoms: _458  and  _461
REMARK  185  A    between atoms: _461  and  _462
REMARK  186  A    between atoms: _462  and  _463
REMARK  187  A    between atoms: _463  and  _464
REMARK  188  A    between atoms: _473  and  _475
REMARK  189  A    between atoms: _475  and  _476
REMARK  190  A    between atoms: _475  and  _478
REMARK  191  A    between atoms: _478  and  _479
REMARK  192  A    between atoms: _484  and  _486
REMARK  193  A    between atoms: _486  and  _487
REMARK  194  A    between atoms: _486  and  _489
REMARK  195  A    between atoms: _489  and  _490
REMARK  196  A    between atoms: _490  and  _491
REMARK  197  A    between atoms: _491  and  _492
REMARK  198  A    between atoms: _501  and  _503
REMARK  199  A    between atoms: _503  and  _504
REMARK  200  A    between atoms: _503  and  _506
REMARK  201  A    between atoms: _506  and  _507
REMARK  202  A    between atoms: _507  and  _508
REMARK  203  A    between atoms: _508  and  _509
REMARK  204  A    between atoms: _518  and  _520
REMARK  205  A    between atoms: _520  and  _521
REMARK  206  A    between atoms: _520  and  _523
REMARK  207  A    between atoms: _523  and  _524
REMARK  208  A    between atoms: _527  and  _529
REMARK  209  A    between atoms: _529  and  _530
REMARK  210  A    between atoms: _529  and  _532
REMARK  211  A    between atoms: _532  and  _533
REMARK  212  A    between atoms: _536  and  _538
REMARK  213  A    between atoms: _538  and  _539
REMARK  214  A    between atoms: _538  and  _541
REMARK  215  A    between atoms: _541  and  _542
REMARK                            x       y       z     vdW  Elec       q    Type
REMARK                         _______ _______ _______ _____ _____    ______ ____
ROOT
ATOM      1  O   HOH     1      23.367   7.335  -7.226  0.00  0.00    +0.000 OA
ENDROOT
TORSDOF 0
REMARK  Name = ../refined-set-2016/3iue/3iue_pocket.pdb
REMARK  215 active torsions:
REMARK  status: ('A' for Active; 'I' for Inactive)
REMARK    1  A    between atoms: _1  and  _3
REMARK    2  A    between atoms: _3  and  _4
REMARK    3  A    between atoms: _3  and  _6
REMARK    4  A    between atoms: _10  and  _11
REMARK    5  A    between atoms: _16  and  _18
REMARK    6  A    between atoms: _18  and  _19
REMARK    7  A    between atoms: _18  and  _21
REMARK    8  A    between atoms: _21  and  _22
REMARK    9  A    between atoms: _25  and  _27
REMARK   10  A    between atoms: _27  and  _28
REMARK   11  A    between atoms: _27  and  _30
REMARK   12  A    between atoms: _30  and  _31
REMARK   13  A    between atoms: _31  and  _32
REMARK   14  A    between atoms: _34  and  _36
REMARK   15  A    between atoms: _36  and  _37
REMARK   16  A    between atoms: _39  and  _41
REMARK   17  A    between atoms: _41  and  _42
REMARK   18  A    between atoms: _45  and  _47
REMARK   19  A    between atoms: _47  and  _48
REMARK   20  A    between atoms: _47  and  _50
REMARK   21  A    between atoms: _50  and  _51
REMARK   22  A    between atoms: _54  and  _56
REMARK   23  A    between atoms: _56  and  _57
REMARK   24  A    between atoms: _56  and  _59
REMARK   25  A    between atoms: _59  and  _60
REMARK   26  A    between atoms: _65  and  _67
REMARK   27  A    between atoms: _67  and  _68
REMARK   28  A    between atoms: _67  and  _70
REMARK   29  A    between atoms: _70  and  _71
REMARK   30  A    between atoms: _71  and  _72
REMARK   31  A    between atoms: _75  and  _77
REMARK   32  A    between atoms: _77  and  _78
REMARK   33  A    between atoms: _80  and  _82
REMARK   34  A    between atoms: _82  and  _83
REMARK   35  A    between atoms: _82  and  _85
REMARK   36  A    between atoms: _85  and  _86
REMARK   37  A    between atoms: _91  and  _93
REMARK   38  A    between atoms: _93  and  _94
REMARK   39  A    between atoms: _93  and  _96
REMARK   40  A    between atoms: _96  and  _97
REMARK   41  A    between atoms: _100  and  _102
REMARK   42  A    between atoms: _102  and  _103
REMARK   43  A    between atoms: _106  and  _108
REMARK   44  A    between atoms: _108  and  _109
REMARK   45  A    between atoms: _108  and  _111
REMARK   46  A    between atoms: _111  and  _112
REMARK   47  A    between atoms: _115  and  _117
REMARK   48  A    between atoms: _117  and  _118
REMARK   49  A    between atoms: _117  and  _120
REMARK   50  A    between atoms: _123  and  _125
REMARK   51  A    between atoms: _125  and  _126
REMARK   52  A    between atoms: _125  and  _128
REMARK   53  A    between atoms: _128  and  _129
REMARK   54  A    between atoms: _131  and  _133
REMARK   55  A    between atoms: _133  and  _134
REMARK   56  A    between atoms: _133  and  _136
REMARK   57  A    between atoms: _136  and  _137
REMARK   58  A    between atoms: _140  and  _142
REMARK   59  A    between atoms: _142  and  _143
REMARK   60  A    between atoms: _142  and  _145
REMARK   61  A    between atoms: _145  and  _146
REMARK   62  A    between atoms: _152  and  _154
REMARK   63  A    between atoms: _154  and  _155
REMARK   64  A    between atoms: _154  and  _157
REMARK   65  A    between atoms: _157  and  _158
REMARK   66  A    between atoms: _163  and  _165
REMARK   67  A    between atoms: _165  and  _166
REMARK   68  A    between atoms: _165  and  _168
REMARK   69  A    between atoms: _168  and  _169
REMARK   70  A    between atoms: _169  and  _170
REMARK   71  A    between atoms: _175  and  _177
REMARK   72  A    between atoms: _177  and  _178
REMARK   73  A    between atoms: _177  and  _180
REMARK   74  A    between atoms: _180  and  _181
REMARK   75  A    between atoms: _187  and  _189
REMARK   76  A    between atoms: _189  and  _190
REMARK   77  A    between atoms: _189  and  _192
REMARK   78  A    between atoms: _192  and  _193
REMARK   79  A    between atoms: _198  and  _199
REMARK   80  A    between atoms: _202  and  _203
REMARK   81  A    between atoms: _208  and  _210
REMARK   82  A    between atoms: _210  and  _211
REMARK   83  A    between atoms: _210  and  _213
REMARK   84  A    between atoms: _213  and  _214
REMARK   85  A    between atoms: _214  and  _215
REMARK   86  A    between atoms: _218  and  _220
REMARK   87  A    between atoms: _220  and  _221
REMARK   88  A    between atoms: _220  and  _223
REMARK   89  A    between atoms: _223  and  _224
REMARK   90  A    between atoms: _229  and  _231
REMARK   91  A    between atoms: _231  and  _232
REMARK   92  A    between atoms: _231  and  _234
REMARK   93  A    between atoms: _234  and  _235
REMARK   94  A    between atoms: _241  and  _243
REMARK   95  A    between atoms: _243  and  _244
REMARK   96  A    between atoms: _243  and  _246
REMARK   97  A    between atoms: _249  and  _251
REMARK   98  A    between atoms: _251  and  _252
REMARK   99  A    between atoms: _251  and  _254
REMARK  100  A    between atoms: _257  and  _259
REMARK  101  A    between atoms: _259  and  _260
REMARK  102  A    between atoms: _259  and  _262
REMARK  103  A    between atoms: _262  and  _263
REMARK  104  A    between atoms: _269  and  _271
REMARK  105  A    between atoms: _271  and  _272
REMARK  106  A    between atoms: _271  and  _274
REMARK  107  A    between atoms: _274  and  _275
REMARK  108  A    between atoms: _281  and  _283
REMARK  109  A    between atoms: _283  and  _284
REMARK  110  A    between atoms: _286  and  _288
REMARK  111  A    between atoms: _288  and  _289
REMARK  112  A    between atoms: _288  and  _291
REMARK  113  A    between atoms: _291  and  _292
REMARK  114  A    between atoms: _292  and  _293
REMARK  115  A    between atoms: _296  and  _298
REMARK  116  A    between atoms: _298  and  _299
REMARK  117  A    between atoms: _298  and  _301
REMARK  118  A    between atoms: _301  and  _302
REMARK  119  A    between atoms: _302  and  _303
REMARK  120  A    between atoms: _303  and  _304
REMARK  121  A    between atoms: _304  and  _305
REMARK  122  A    between atoms: _309  and  _311
REMARK  123  A    between atoms: _311  and  _312
REMARK  124  A    between atoms: _311  and  _314
REMARK  125  A    between atoms: _314  and  _315
REMARK  126  A    between atoms: _318  and  _320
REMARK  127  A    between atoms: _320  and  _321
REMARK  128  A    between atoms: _320  and  _323
REMARK  129  A    between atoms: _323  and  _324
REMARK  130  A    between atoms: _329  and  _330
REMARK  131  A    between atoms: _332  and  _334
REMARK  132  A    between atoms: _334  and  _335
REMARK  133  A    between atoms: _334  and  _337
REMARK  134  A    between atoms: _337  and  _338
REMARK  135  A    between atoms: _338  and  _339
REMARK  136  A    between atoms: _344  and  _346
REMARK  137  A    between atoms: _346  and  _347
REMARK  138  A    between atoms: _346  and  _349
REMARK  139  A    between atoms: _349  and  _350
REMARK  140  A    between atoms: _353  and  _355
REMARK  141  A    between atoms: _355  and  _356
REMARK  142  A    between atoms: _355  and  _358
REMARK  143  A    between atoms: _358  and  _359
REMARK  144  A    between atoms: _362  and  _364
REMARK  145  A    between atoms: _364  and  _365
REMARK  146  A    between atoms: _367  and  _369
REMARK  147  A    between atoms: _369  and  _370
REMARK  148  A    between atoms: _369  and  _372
REMARK  149  A    between atoms: _376  and  _377
REMARK  150  A    between atoms: _382  and  _384
REMARK  151  A    between atoms: _384  and  _385
REMARK  152  A    between atoms: _384  and  _387
REMARK  153  A    between atoms: _387  and  _388
REMARK  154  A    between atoms: _391  and  _393
REMARK  155  A    between atoms: _393  and  _394
REMARK  156  A    between atoms: _393  and  _396
REMARK  157  A    between atoms: _399  and  _401
REMARK  158  A    between atoms: _401  and  _402
REMARK  159  A    between atoms: _401  and  _404
REMARK  160  A    between atoms: _404  and  _405
REMARK  161  A    between atoms: _405  and  _406
REMARK  162  A    between atoms: _406  and  _407
REMARK  163  A    between atoms: _416  and  _418
REMARK  164  A    between atoms: _418  and  _419
REMARK  165  A    between atoms: _418  and  _421
REMARK  166  A    between atoms: _421  and  _422
REMARK  167  A    between atoms: _425  and  _427
REMARK  168  A    between atoms: _427  and  _428
REMARK  169  A    between atoms: _431  and  _433
REMARK  170  A    between atoms: _433  and  _434
REMARK  171  A    between atoms: _433  and  _436
REMARK  172  A    between atoms: _436  and  _437
REMARK  173  A    between atoms: _437  and  _438
REMARK  174  A    between atoms: _440  and  _442
REMARK  175  A    between atoms: _442  and  _443
REMARK  176  A    between atoms: _442  and  _445
REMARK  177  A    between atoms: _445  and  _446
REMARK  178  A    between atoms: _448  and  _450
REMARK  179  A    between atoms: _450  and  _451
REMARK  180  A    between atoms: _450  and  _453
REMARK  181  A    between atoms: _453  and  _454
REMARK  182  A    between atoms: _456  and  _458
REMARK  183  A    between atoms: _458  and  _459
REMARK  184  A    between atoms: _458  and  _461
REMARK  185  A    between atoms: _461  and  _462
REMARK  186  A    between atoms: _462  and  _463
REMARK  187  A    between atoms: _463  and  _464
REMARK  188  A    between atoms: _473  and  _475
REMARK  189  A    between atoms: _475  and  _476
REMARK  190  A    between atoms: _475  and  _478
REMARK  191  A    between atoms: _478  and  _479
REMARK  192  A    between atoms: _484  and  _486
REMARK  193  A    between atoms: _486  and  _487
REMARK  194  A    between atoms: _486  and  _489
REMARK  195  A    between atoms: _489  and  _490
REMARK  196  A    between atoms: _490  and  _491
REMARK  197  A    between atoms: _491  and  _492
REMARK  198  A    between atoms: _501  and  _503
REMARK  199  A    between atoms: _503  and  _504
REMARK  200  A    between atoms: _503  and  _506
REMARK  201  A    between atoms: _506  and  _507
REMARK  202  A    between atoms: _507  and  _508
REMARK  203  A    between atoms: _508  and  _509
REMARK  204  A    between atoms: _518  and  _520
REMARK  205  A    between atoms: _520  and  _521
REMARK  206  A    between atoms: _520  and  _523
REMARK  207  A    between atoms: _523  and  _524
REMARK  208  A    between atoms: _527  and  _529
REMARK  209  A    between atoms: _529  and  _530
REMARK  210  A    between atoms: _529  and  _532
REMARK  211  A    between atoms: _532  and  _533
REMARK  212  A    between atoms: _536  and  _538
REMARK  213  A    between atoms: _538  and  _539
REMARK  214  A    between atoms: _538  and  _541
REMARK  215  A    between atoms: _541  and  _542
REMARK                            x       y       z     vdW  Elec       q    Type
REMARK                         _______ _______ _______ _____ _____    ______ ____
ROOT
ATOM      1  O   HOH     1      14.097  12.078  11.064  0.00  0.00    +0.000 OA
ENDROOT
TORSDOF 0
REMARK  Name = ../refined-set-2016/3iue/3iue_pocket.pdb
REMARK  215 active torsions:
REMARK  status: ('A' for Active; 'I' for Inactive)
REMARK    1  A    between atoms: _1  and  _3
REMARK    2  A    between atoms: _3  and  _4
REMARK    3  A    between atoms: _3  and  _6
REMARK    4  A    between atoms: _10  and  _11
REMARK    5  A    between atoms: _16  and  _18
REMARK    6  A    between atoms: _18  and  _19
REMARK    7  A    between atoms: _18  and  _21
REMARK    8  A    between atoms: _21  and  _22
REMARK    9  A    between atoms: _25  and  _27
REMARK   10  A    between atoms: _27  and  _28
REMARK   11  A    between atoms: _27  and  _30
REMARK   12  A    between atoms: _30  and  _31
REMARK   13  A    between atoms: _31  and  _32
REMARK   14  A    between atoms: _34  and  _36
REMARK   15  A    between atoms: _36  and  _37
REMARK   16  A    between atoms: _39  and  _41
REMARK   17  A    between atoms: _41  and  _42
REMARK   18  A    between atoms: _45  and  _47
REMARK   19  A    between atoms: _47  and  _48
REMARK   20  A    between atoms: _47  and  _50
REMARK   21  A    between atoms: _50  and  _51
REMARK   22  A    between atoms: _54  and  _56
REMARK   23  A    between atoms: _56  and  _57
REMARK   24  A    between atoms: _56  and  _59
REMARK   25  A    between atoms: _59  and  _60
REMARK   26  A    between atoms: _65  and  _67
REMARK   27  A    between atoms: _67  and  _68
REMARK   28  A    between atoms: _67  and  _70
REMARK   29  A    between atoms: _70  and  _71
REMARK   30  A    between atoms: _71  and  _72
REMARK   31  A    between atoms: _75  and  _77
REMARK   32  A    between atoms: _77  and  _78
REMARK   33  A    between atoms: _80  and  _82
REMARK   34  A    between atoms: _82  and  _83
REMARK   35  A    between atoms: _82  and  _85
REMARK   36  A    between atoms: _85  and  _86
REMARK   37  A    between atoms: _91  and  _93
REMARK   38  A    between atoms: _93  and  _94
REMARK   39  A    between atoms: _93  and  _96
REMARK   40  A    between atoms: _96  and  _97
REMARK   41  A    between atoms: _100  and  _102
REMARK   42  A    between atoms: _102  and  _103
REMARK   43  A    between atoms: _106  and  _108
REMARK   44  A    between atoms: _108  and  _109
REMARK   45  A    between atoms: _108  and  _111
REMARK   46  A    between atoms: _111  and  _112
REMARK   47  A    between atoms: _115  and  _117
REMARK   48  A    between atoms: _117  and  _118
REMARK   49  A    between atoms: _117  and  _120
REMARK   50  A    between atoms: _123  and  _125
REMARK   51  A    between atoms: _125  and  _126
REMARK   52  A    between atoms: _125  and  _128
REMARK   53  A    between atoms: _128  and  _129
REMARK   54  A    between atoms: _131  and  _133
REMARK   55  A    between atoms: _133  and  _134
REMARK   56  A    between atoms: _133  and  _136
REMARK   57  A    between atoms: _136  and  _137
REMARK   58  A    between atoms: _140  and  _142
REMARK   59  A    between atoms: _142  and  _143
REMARK   60  A    between atoms: _142  and  _145
REMARK   61  A    between atoms: _145  and  _146
REMARK   62  A    between atoms: _152  and  _154
REMARK   63  A    between atoms: _154  and  _155
REMARK   64  A    between atoms: _154  and  _157
REMARK   65  A    between atoms: _157  and  _158
REMARK   66  A    between atoms: _163  and  _165
REMARK   67  A    between atoms: _165  and  _166
REMARK   68  A    between atoms: _165  and  _168
REMARK   69  A    between atoms: _168  and  _169
REMARK   70  A    between atoms: _169  and  _170
REMARK   71  A    between atoms: _175  and  _177
REMARK   72  A    between atoms: _177  and  _178
REMARK   73  A    between atoms: _177  and  _180
REMARK   74  A    between atoms: _180  and  _181
REMARK   75  A    between atoms: _187  and  _189
REMARK   76  A    between atoms: _189  and  _190
REMARK   77  A    between atoms: _189  and  _192
REMARK   78  A    between atoms: _192  and  _193
REMARK   79  A    between atoms: _198  and  _199
REMARK   80  A    between atoms: _202  and  _203
REMARK   81  A    between atoms: _208  and  _210
REMARK   82  A    between atoms: _210  and  _211
REMARK   83  A    between atoms: _210  and  _213
REMARK   84  A    between atoms: _213  and  _214
REMARK   85  A    between atoms: _214  and  _215
REMARK   86  A    between atoms: _218  and  _220
REMARK   87  A    between atoms: _220  and  _221
REMARK   88  A    between atoms: _220  and  _223
REMARK   89  A    between atoms: _223  and  _224
REMARK   90  A    between atoms: _229  and  _231
REMARK   91  A    between atoms: _231  and  _232
REMARK   92  A    between atoms: _231  and  _234
REMARK   93  A    between atoms: _234  and  _235
REMARK   94  A    between atoms: _241  and  _243
REMARK   95  A    between atoms: _243  and  _244
REMARK   96  A    between atoms: _243  and  _246
REMARK   97  A    between atoms: _249  and  _251
REMARK   98  A    between atoms: _251  and  _252
REMARK   99  A    between atoms: _251  and  _254
REMARK  100  A    between atoms: _257  and  _259
REMARK  101  A    between atoms: _259  and  _260
REMARK  102  A    between atoms: _259  and  _262
REMARK  103  A    between atoms: _262  and  _263
REMARK  104  A    between atoms: _269  and  _271
REMARK  105  A    between atoms: _271  and  _272
REMARK  106  A    between atoms: _271  and  _274
REMARK  107  A    between atoms: _274  and  _275
REMARK  108  A    between atoms: _281  and  _283
REMARK  109  A    between atoms: _283  and  _284
REMARK  110  A    between atoms: _286  and  _288
REMARK  111  A    between atoms: _288  and  _289
REMARK  112  A    between atoms: _288  and  _291
REMARK  113  A    between atoms: _291  and  _292
REMARK  114  A    between atoms: _292  and  _293
REMARK  115  A    between atoms: _296  and  _298
REMARK  116  A    between atoms: _298  and  _299
REMARK  117  A    between atoms: _298  and  _301
REMARK  118  A    between atoms: _301  and  _302
REMARK  119  A    between atoms: _302  and  _303
REMARK  120  A    between atoms: _303  and  _304
REMARK  121  A    between atoms: _304  and  _305
REMARK  122  A    between atoms: _309  and  _311
REMARK  123  A    between atoms: _311  and  _312
REMARK  124  A    between atoms: _311  and  _314
REMARK  125  A    between atoms: _314  and  _315
REMARK  126  A    between atoms: _318  and  _320
REMARK  127  A    between atoms: _320  and  _321
REMARK  128  A    between atoms: _320  and  _323
REMARK  129  A    between atoms: _323  and  _324
REMARK  130  A    between atoms: _329  and  _330
REMARK  131  A    between atoms: _332  and  _334
REMARK  132  A    between atoms: _334  and  _335
REMARK  133  A    between atoms: _334  and  _337
REMARK  134  A    between atoms: _337  and  _338
REMARK  135  A    between atoms: _338  and  _339
REMARK  136  A    between atoms: _344  and  _346
REMARK  137  A    between atoms: _346  and  _347
REMARK  138  A    between atoms: _346  and  _349
REMARK  139  A    between atoms: _349  and  _350
REMARK  140  A    between atoms: _353  and  _355
REMARK  141  A    between atoms: _355  and  _356
REMARK  142  A    between atoms: _355  and  _358
REMARK  143  A    between atoms: _358  and  _359
REMARK  144  A    between atoms: _362  and  _364
REMARK  145  A    between atoms: _364  and  _365
REMARK  146  A    between atoms: _367  and  _369
REMARK  147  A    between atoms: _369  and  _370
REMARK  148  A    between atoms: _369  and  _372
REMARK  149  A    between atoms: _376  and  _377
REMARK  150  A    between atoms: _382  and  _384
REMARK  151  A    between atoms: _384  and  _385
REMARK  152  A    between atoms: _384  and  _387
REMARK  153  A    between atoms: _387  and  _388
REMARK  154  A    between atoms: _391  and  _393
REMARK  155  A    between atoms: _393  and  _394
REMARK  156  A    between atoms: _393  and  _396
REMARK  157  A    between atoms: _399  and  _401
REMARK  158  A    between atoms: _401  and  _402
REMARK  159  A    between atoms: _401  and  _404
REMARK  160  A    between atoms: _404  and  _405
REMARK  161  A    between atoms: _405  and  _406
REMARK  162  A    between atoms: _406  and  _407
REMARK  163  A    between atoms: _416  and  _418
REMARK  164  A    between atoms: _418  and  _419
REMARK  165  A    between atoms: _418  and  _421
REMARK  166  A    between atoms: _421  and  _422
REMARK  167  A    between atoms: _425  and  _427
REMARK  168  A    between atoms: _427  and  _428
REMARK  169  A    between atoms: _431  and  _433
REMARK  170  A    between atoms: _433  and  _434
REMARK  171  A    between atoms: _433  and  _436
REMARK  172  A    between atoms: _436  and  _437
REMARK  173  A    between atoms: _437  and  _438
REMARK  174  A    between atoms: _440  and  _442
REMARK  175  A    between atoms: _442  and  _443
REMARK  176  A    between atoms: _442  and  _445
REMARK  177  A    between atoms: _445  and  _446
REMARK  178  A    between atoms: _448  and  _450
REMARK  179  A    between atoms: _450  and  _451
REMARK  180  A    between atoms: _450  and  _453
REMARK  181  A    between atoms: _453  and  _454
REMARK  182  A    between atoms: _456  and  _458
REMARK  183  A    between atoms: _458  and  _459
REMARK  184  A    between atoms: _458  and  _461
REMARK  185  A    between atoms: _461  and  _462
REMARK  186  A    between atoms: _462  and  _463
REMARK  187  A    between atoms: _463  and  _464
REMARK  188  A    between atoms: _473  and  _475
REMARK  189  A    between atoms: _475  and  _476
REMARK  190  A    between atoms: _475  and  _478
REMARK  191  A    between atoms: _478  and  _479
REMARK  192  A    between atoms: _484  and  _486
REMARK  193  A    between atoms: _486  and  _487
REMARK  194  A    between atoms: _486  and  _489
REMARK  195  A    between atoms: _489  and  _490
REMARK  196  A    between atoms: _490  and  _491
REMARK  197  A    between atoms: _491  and  _492
REMARK  198  A    between atoms: _501  and  _503
REMARK  199  A    between atoms: _503  and  _504
REMARK  200  A    between atoms: _503  and  _506
REMARK  201  A    between atoms: _506  and  _507
REMARK  202  A    between atoms: _507  and  _508
REMARK  203  A    between atoms: _508  and  _509
REMARK  204  A    between atoms: _518  and  _520
REMARK  205  A    between atoms: _520  and  _521
REMARK  206  A    between atoms: _520  and  _523
REMARK  207  A    between atoms: _523  and  _524
REMARK  208  A    between atoms: _527  and  _529
REMARK  209  A    between atoms: _529  and  _530
REMARK  210  A    between atoms: _529  and  _532
REMARK  211  A    between atoms: _532  and  _533
REMARK  212  A    between atoms: _536  and  _538
REMARK  213  A    between atoms: _538  and  _539
REMARK  214  A    between atoms: _538  and  _541
REMARK  215  A    between atoms: _541  and  _542
REMARK                            x       y       z     vdW  Elec       q    Type
REMARK                         _______ _______ _______ _____ _____    ______ ____
ROOT
ATOM      1  O   HOH     1      19.124  18.208  -1.928  0.00  0.00    +0.000 OA
ENDROOT
TORSDOF 0
REMARK  Name = ../refined-set-2016/3iue/3iue_pocket.pdb
REMARK  215 active torsions:
REMARK  status: ('A' for Active; 'I' for Inactive)
REMARK    1  A    between atoms: _1  and  _3
REMARK    2  A    between atoms: _3  and  _4
REMARK    3  A    between atoms: _3  and  _6
REMARK    4  A    between atoms: _10  and  _11
REMARK    5  A    between atoms: _16  and  _18
REMARK    6  A    between atoms: _18  and  _19
REMARK    7  A    between atoms: _18  and  _21
REMARK    8  A    between atoms: _21  and  _22
REMARK    9  A    between atoms: _25  and  _27
REMARK   10  A    between atoms: _27  and  _28
REMARK   11  A    between atoms: _27  and  _30
REMARK   12  A    between atoms: _30  and  _31
REMARK   13  A    between atoms: _31  and  _32
REMARK   14  A    between atoms: _34  and  _36
REMARK   15  A    between atoms: _36  and  _37
REMARK   16  A    between atoms: _39  and  _41
REMARK   17  A    between atoms: _41  and  _42
REMARK   18  A    between atoms: _45  and  _47
REMARK   19  A    between atoms: _47  and  _48
REMARK   20  A    between atoms: _47  and  _50
REMARK   21  A    between atoms: _50  and  _51
REMARK   22  A    between atoms: _54  and  _56
REMARK   23  A    between atoms: _56  and  _57
REMARK   24  A    between atoms: _56  and  _59
REMARK   25  A    between atoms: _59  and  _60
REMARK   26  A    between atoms: _65  and  _67
REMARK   27  A    between atoms: _67  and  _68
REMARK   28  A    between atoms: _67  and  _70
REMARK   29  A    between atoms: _70  and  _71
REMARK   30  A    between atoms: _71  and  _72
REMARK   31  A    between atoms: _75  and  _77
REMARK   32  A    between atoms: _77  and  _78
REMARK   33  A    between atoms: _80  and  _82
REMARK   34  A    between atoms: _82  and  _83
REMARK   35  A    between atoms: _82  and  _85
REMARK   36  A    between atoms: _85  and  _86
REMARK   37  A    between atoms: _91  and  _93
REMARK   38  A    between atoms: _93  and  _94
REMARK   39  A    between atoms: _93  and  _96
REMARK   40  A    between atoms: _96  and  _97
REMARK   41  A    between atoms: _100  and  _102
REMARK   42  A    between atoms: _102  and  _103
REMARK   43  A    between atoms: _106  and  _108
REMARK   44  A    between atoms: _108  and  _109
REMARK   45  A    between atoms: _108  and  _111
REMARK   46  A    between atoms: _111  and  _112
REMARK   47  A    between atoms: _115  and  _117
REMARK   48  A    between atoms: _117  and  _118
REMARK   49  A    between atoms: _117  and  _120
REMARK   50  A    between atoms: _123  and  _125
REMARK   51  A    between atoms: _125  and  _126
REMARK   52  A    between atoms: _125  and  _128
REMARK   53  A    between atoms: _128  and  _129
REMARK   54  A    between atoms: _131  and  _133
REMARK   55  A    between atoms: _133  and  _134
REMARK   56  A    between atoms: _133  and  _136
REMARK   57  A    between atoms: _136  and  _137
REMARK   58  A    between atoms: _140  and  _142
REMARK   59  A    between atoms: _142  and  _143
REMARK   60  A    between atoms: _142  and  _145
REMARK   61  A    between atoms: _145  and  _146
REMARK   62  A    between atoms: _152  and  _154
REMARK   63  A    between atoms: _154  and  _155
REMARK   64  A    between atoms: _154  and  _157
REMARK   65  A    between atoms: _157  and  _158
REMARK   66  A    between atoms: _163  and  _165
REMARK   67  A    between atoms: _165  and  _166
REMARK   68  A    between atoms: _165  and  _168
REMARK   69  A    between atoms: _168  and  _169
REMARK   70  A    between atoms: _169  and  _170
REMARK   71  A    between atoms: _175  and  _177
REMARK   72  A    between atoms: _177  and  _178
REMARK   73  A    between atoms: _177  and  _180
REMARK   74  A    between atoms: _180  and  _181
REMARK   75  A    between atoms: _187  and  _189
REMARK   76  A    between atoms: _189  and  _190
REMARK   77  A    between atoms: _189  and  _192
REMARK   78  A    between atoms: _192  and  _193
REMARK   79  A    between atoms: _198  and  _199
REMARK   80  A    between atoms: _202  and  _203
REMARK   81  A    between atoms: _208  and  _210
REMARK   82  A    between atoms: _210  and  _211
REMARK   83  A    between atoms: _210  and  _213
REMARK   84  A    between atoms: _213  and  _214
REMARK   85  A    between atoms: _214  and  _215
REMARK   86  A    between atoms: _218  and  _220
REMARK   87  A    between atoms: _220  and  _221
REMARK   88  A    between atoms: _220  and  _223
REMARK   89  A    between atoms: _223  and  _224
REMARK   90  A    between atoms: _229  and  _231
REMARK   91  A    between atoms: _231  and  _232
REMARK   92  A    between atoms: _231  and  _234
REMARK   93  A    between atoms: _234  and  _235
REMARK   94  A    between atoms: _241  and  _243
REMARK   95  A    between atoms: _243  and  _244
REMARK   96  A    between atoms: _243  and  _246
REMARK   97  A    between atoms: _249  and  _251
REMARK   98  A    between atoms: _251  and  _252
REMARK   99  A    between atoms: _251  and  _254
REMARK  100  A    between atoms: _257  and  _259
REMARK  101  A    between atoms: _259  and  _260
REMARK  102  A    between atoms: _259  and  _262
REMARK  103  A    between atoms: _262  and  _263
REMARK  104  A    between atoms: _269  and  _271
REMARK  105  A    between atoms: _271  and  _272
REMARK  106  A    between atoms: _271  and  _274
REMARK  107  A    between atoms: _274  and  _275
REMARK  108  A    between atoms: _281  and  _283
REMARK  109  A    between atoms: _283  and  _284
REMARK  110  A    between atoms: _286  and  _288
REMARK  111  A    between atoms: _288  and  _289
REMARK  112  A    between atoms: _288  and  _291
REMARK  113  A    between atoms: _291  and  _292
REMARK  114  A    between atoms: _292  and  _293
REMARK  115  A    between atoms: _296  and  _298
REMARK  116  A    between atoms: _298  and  _299
REMARK  117  A    between atoms: _298  and  _301
REMARK  118  A    between atoms: _301  and  _302
REMARK  119  A    between atoms: _302  and  _303
REMARK  120  A    between atoms: _303  and  _304
REMARK  121  A    between atoms: _304  and  _305
REMARK  122  A    between atoms: _309  and  _311
REMARK  123  A    between atoms: _311  and  _312
REMARK  124  A    between atoms: _311  and  _314
REMARK  125  A    between atoms: _314  and  _315
REMARK  126  A    between atoms: _318  and  _320
REMARK  127  A    between atoms: _320  and  _321
REMARK  128  A    between atoms: _320  and  _323
REMARK  129  A    between atoms: _323  and  _324
REMARK  130  A    between atoms: _329  and  _330
REMARK  131  A    between atoms: _332  and  _334
REMARK  132  A    between atoms: _334  and  _335
REMARK  133  A    between atoms: _334  and  _337
REMARK  134  A    between atoms: _337  and  _338
REMARK  135  A    between atoms: _338  and  _339
REMARK  136  A    between atoms: _344  and  _346
REMARK  137  A    between atoms: _346  and  _347
REMARK  138  A    between atoms: _346  and  _349
REMARK  139  A    between atoms: _349  and  _350
REMARK  140  A    between atoms: _353  and  _355
REMARK  141  A    between atoms: _355  and  _356
REMARK  142  A    between atoms: _355  and  _358
REMARK  143  A    between atoms: _358  and  _359
REMARK  144  A    between atoms: _362  and  _364
REMARK  145  A    between atoms: _364  and  _365
REMARK  146  A    between atoms: _367  and  _369
REMARK  147  A    between atoms: _369  and  _370
REMARK  148  A    between atoms: _369  and  _372
REMARK  149  A    between atoms: _376  and  _377
REMARK  150  A    between atoms: _382  and  _384
REMARK  151  A    between atoms: _384  and  _385
REMARK  152  A    between atoms: _384  and  _387
REMARK  153  A    between atoms: _387  and  _388
REMARK  154  A    between atoms: _391  and  _393
REMARK  155  A    between atoms: _393  and  _394
REMARK  156  A    between atoms: _393  and  _396
REMARK  157  A    between atoms: _399  and  _401
REMARK  158  A    between atoms: _401  and  _402
REMARK  159  A    between atoms: _401  and  _404
REMARK  160  A    between atoms: _404  and  _405
REMARK  161  A    between atoms: _405  and  _406
REMARK  162  A    between atoms: _406  and  _407
REMARK  163  A    between atoms: _416  and  _418
REMARK  164  A    between atoms: _418  and  _419
REMARK  165  A    between atoms: _418  and  _421
REMARK  166  A    between atoms: _421  and  _422
REMARK  167  A    between atoms: _425  and  _427
REMARK  168  A    between atoms: _427  and  _428
REMARK  169  A    between atoms: _431  and  _433
REMARK  170  A    between atoms: _433  and  _434
REMARK  171  A    between atoms: _433  and  _436
REMARK  172  A    between atoms: _436  and  _437
REMARK  173  A    between atoms: _437  and  _438
REMARK  174  A    between atoms: _440  and  _442
REMARK  175  A    between atoms: _442  and  _443
REMARK  176  A    between atoms: _442  and  _445
REMARK  177  A    between atoms: _445  and  _446
REMARK  178  A    between atoms: _448  and  _450
REMARK  179  A    between atoms: _450  and  _451
REMARK  180  A    between atoms: _450  and  _453
REMARK  181  A    between atoms: _453  and  _454
REMARK  182  A    between atoms: _456  and  _458
REMARK  183  A    between atoms: _458  and  _459
REMARK  184  A    between atoms: _458  and  _461
REMARK  185  A    between atoms: _461  and  _462
REMARK  186  A    between atoms: _462  and  _463
REMARK  187  A    between atoms: _463  and  _464
REMARK  188  A    between atoms: _473  and  _475
REMARK  189  A    between atoms: _475  and  _476
REMARK  190  A    between atoms: _475  and  _478
REMARK  191  A    between atoms: _478  and  _479
REMARK  192  A    between atoms: _484  and  _486
REMARK  193  A    between atoms: _486  and  _487
REMARK  194  A    between atoms: _486  and  _489
REMARK  195  A    between atoms: _489  and  _490
REMARK  196  A    between atoms: _490  and  _491
REMARK  197  A    between atoms: _491  and  _492
REMARK  198  A    between atoms: _501  and  _503
REMARK  199  A    between atoms: _503  and  _504
REMARK  200  A    between atoms: _503  and  _506
REMARK  201  A    between atoms: _506  and  _507
REMARK  202  A    between atoms: _507  and  _508
REMARK  203  A    between atoms: _508  and  _509
REMARK  204  A    between atoms: _518  and  _520
REMARK  205  A    between atoms: _520  and  _521
REMARK  206  A    between atoms: _520  and  _523
REMARK  207  A    between atoms: _523  and  _524
REMARK  208  A    between atoms: _527  and  _529
REMARK  209  A    between atoms: _529  and  _530
REMARK  210  A    between atoms: _529  and  _532
REMARK  211  A    between atoms: _532  and  _533
REMARK  212  A    between atoms: _536  and  _538
REMARK  213  A    between atoms: _538  and  _539
REMARK  214  A    between atoms: _538  and  _541
REMARK  215  A    between atoms: _541  and  _542
REMARK                            x       y       z     vdW  Elec       q    Type
REMARK                         _______ _______ _______ _____ _____    ______ ____
ROOT
ATOM      1  O   HOH     1      20.231   3.915   3.166  0.00  0.00    +0.000 OA
ENDROOT
TORSDOF 0
REMARK  Name = ../refined-set-2016/3iue/3iue_pocket.pdb
REMARK  215 active torsions:
REMARK  status: ('A' for Active; 'I' for Inactive)
REMARK    1  A    between atoms: _1  and  _3
REMARK    2  A    between atoms: _3  and  _4
REMARK    3  A    between atoms: _3  and  _6
REMARK    4  A    between atoms: _10  and  _11
REMARK    5  A    between atoms: _16  and  _18
REMARK    6  A    between atoms: _18  and  _19
REMARK    7  A    between atoms: _18  and  _21
REMARK    8  A    between atoms: _21  and  _22
REMARK    9  A    between atoms: _25  and  _27
REMARK   10  A    between atoms: _27  and  _28
REMARK   11  A    between atoms: _27  and  _30
REMARK   12  A    between atoms: _30  and  _31
REMARK   13  A    between atoms: _31  and  _32
REMARK   14  A    between atoms: _34  and  _36
REMARK   15  A    between atoms: _36  and  _37
REMARK   16  A    between atoms: _39  and  _41
REMARK   17  A    between atoms: _41  and  _42
REMARK   18  A    between atoms: _45  and  _47
REMARK   19  A    between atoms: _47  and  _48
REMARK   20  A    between atoms: _47  and  _50
REMARK   21  A    between atoms: _50  and  _51
REMARK   22  A    between atoms: _54  and  _56
REMARK   23  A    between atoms: _56  and  _57
REMARK   24  A    between atoms: _56  and  _59
REMARK   25  A    between atoms: _59  and  _60
REMARK   26  A    between atoms: _65  and  _67
REMARK   27  A    between atoms: _67  and  _68
REMARK   28  A    between atoms: _67  and  _70
REMARK   29  A    between atoms: _70  and  _71
REMARK   30  A    between atoms: _71  and  _72
REMARK   31  A    between atoms: _75  and  _77
REMARK   32  A    between atoms: _77  and  _78
REMARK   33  A    between atoms: _80  and  _82
REMARK   34  A    between atoms: _82  and  _83
REMARK   35  A    between atoms: _82  and  _85
REMARK   36  A    between atoms: _85  and  _86
REMARK   37  A    between atoms: _91  and  _93
REMARK   38  A    between atoms: _93  and  _94
REMARK   39  A    between atoms: _93  and  _96
REMARK   40  A    between atoms: _96  and  _97
REMARK   41  A    between atoms: _100  and  _102
REMARK   42  A    between atoms: _102  and  _103
REMARK   43  A    between atoms: _106  and  _108
REMARK   44  A    between atoms: _108  and  _109
REMARK   45  A    between atoms: _108  and  _111
REMARK   46  A    between atoms: _111  and  _112
REMARK   47  A    between atoms: _115  and  _117
REMARK   48  A    between atoms: _117  and  _118
REMARK   49  A    between atoms: _117  and  _120
REMARK   50  A    between atoms: _123  and  _125
REMARK   51  A    between atoms: _125  and  _126
REMARK   52  A    between atoms: _125  and  _128
REMARK   53  A    between atoms: _128  and  _129
REMARK   54  A    between atoms: _131  and  _133
REMARK   55  A    between atoms: _133  and  _134
REMARK   56  A    between atoms: _133  and  _136
REMARK   57  A    between atoms: _136  and  _137
REMARK   58  A    between atoms: _140  and  _142
REMARK   59  A    between atoms: _142  and  _143
REMARK   60  A    between atoms: _142  and  _145
REMARK   61  A    between atoms: _145  and  _146
REMARK   62  A    between atoms: _152  and  _154
REMARK   63  A    between atoms: _154  and  _155
REMARK   64  A    between atoms: _154  and  _157
REMARK   65  A    between atoms: _157  and  _158
REMARK   66  A    between atoms: _163  and  _165
REMARK   67  A    between atoms: _165  and  _166
REMARK   68  A    between atoms: _165  and  _168
REMARK   69  A    between atoms: _168  and  _169
REMARK   70  A    between atoms: _169  and  _170
REMARK   71  A    between atoms: _175  and  _177
REMARK   72  A    between atoms: _177  and  _178
REMARK   73  A    between atoms: _177  and  _180
REMARK   74  A    between atoms: _180  and  _181
REMARK   75  A    between atoms: _187  and  _189
REMARK   76  A    between atoms: _189  and  _190
REMARK   77  A    between atoms: _189  and  _192
REMARK   78  A    between atoms: _192  and  _193
REMARK   79  A    between atoms: _198  and  _199
REMARK   80  A    between atoms: _202  and  _203
REMARK   81  A    between atoms: _208  and  _210
REMARK   82  A    between atoms: _210  and  _211
REMARK   83  A    between atoms: _210  and  _213
REMARK   84  A    between atoms: _213  and  _214
REMARK   85  A    between atoms: _214  and  _215
REMARK   86  A    between atoms: _218  and  _220
REMARK   87  A    between atoms: _220  and  _221
REMARK   88  A    between atoms: _220  and  _223
REMARK   89  A    between atoms: _223  and  _224
REMARK   90  A    between atoms: _229  and  _231
REMARK   91  A    between atoms: _231  and  _232
REMARK   92  A    between atoms: _231  and  _234
REMARK   93  A    between atoms: _234  and  _235
REMARK   94  A    between atoms: _241  and  _243
REMARK   95  A    between atoms: _243  and  _244
REMARK   96  A    between atoms: _243  and  _246
REMARK   97  A    between atoms: _249  and  _251
REMARK   98  A    between atoms: _251  and  _252
REMARK   99  A    between atoms: _251  and  _254
REMARK  100  A    between atoms: _257  and  _259
REMARK  101  A    between atoms: _259  and  _260
REMARK  102  A    between atoms: _259  and  _262
REMARK  103  A    between atoms: _262  and  _263
REMARK  104  A    between atoms: _269  and  _271
REMARK  105  A    between atoms: _271  and  _272
REMARK  106  A    between atoms: _271  and  _274
REMARK  107  A    between atoms: _274  and  _275
REMARK  108  A    between atoms: _281  and  _283
REMARK  109  A    between atoms: _283  and  _284
REMARK  110  A    between atoms: _286  and  _288
REMARK  111  A    between atoms: _288  and  _289
REMARK  112  A    between atoms: _288  and  _291
REMARK  113  A    between atoms: _291  and  _292
REMARK  114  A    between atoms: _292  and  _293
REMARK  115  A    between atoms: _296  and  _298
REMARK  116  A    between atoms: _298  and  _299
REMARK  117  A    between atoms: _298  and  _301
REMARK  118  A    between atoms: _301  and  _302
REMARK  119  A    between atoms: _302  and  _303
REMARK  120  A    between atoms: _303  and  _304
REMARK  121  A    between atoms: _304  and  _305
REMARK  122  A    between atoms: _309  and  _311
REMARK  123  A    between atoms: _311  and  _312
REMARK  124  A    between atoms: _311  and  _314
REMARK  125  A    between atoms: _314  and  _315
REMARK  126  A    between atoms: _318  and  _320
REMARK  127  A    between atoms: _320  and  _321
REMARK  128  A    between atoms: _320  and  _323
REMARK  129  A    between atoms: _323  and  _324
REMARK  130  A    between atoms: _329  and  _330
REMARK  131  A    between atoms: _332  and  _334
REMARK  132  A    between atoms: _334  and  _335
REMARK  133  A    between atoms: _334  and  _337
REMARK  134  A    between atoms: _337  and  _338
REMARK  135  A    between atoms: _338  and  _339
REMARK  136  A    between atoms: _344  and  _346
REMARK  137  A    between atoms: _346  and  _347
REMARK  138  A    between atoms: _346  and  _349
REMARK  139  A    between atoms: _349  and  _350
REMARK  140  A    between atoms: _353  and  _355
REMARK  141  A    between atoms: _355  and  _356
REMARK  142  A    between atoms: _355  and  _358
REMARK  143  A    between atoms: _358  and  _359
REMARK  144  A    between atoms: _362  and  _364
REMARK  145  A    between atoms: _364  and  _365
REMARK  146  A    between atoms: _367  and  _369
REMARK  147  A    between atoms: _369  and  _370
REMARK  148  A    between atoms: _369  and  _372
REMARK  149  A    between atoms: _376  and  _377
REMARK  150  A    between atoms: _382  and  _384
REMARK  151  A    between atoms: _384  and  _385
REMARK  152  A    between atoms: _384  and  _387
REMARK  153  A    between atoms: _387  and  _388
REMARK  154  A    between atoms: _391  and  _393
REMARK  155  A    between atoms: _393  and  _394
REMARK  156  A    between atoms: _393  and  _396
REMARK  157  A    between atoms: _399  and  _401
REMARK  158  A    between atoms: _401  and  _402
REMARK  159  A    between atoms: _401  and  _404
REMARK  160  A    between atoms: _404  and  _405
REMARK  161  A    between atoms: _405  and  _406
REMARK  162  A    between atoms: _406  and  _407
REMARK  163  A    between atoms: _416  and  _418
REMARK  164  A    between atoms: _418  and  _419
REMARK  165  A    between atoms: _418  and  _421
REMARK  166  A    between atoms: _421  and  _422
REMARK  167  A    between atoms: _425  and  _427
REMARK  168  A    between atoms: _427  and  _428
REMARK  169  A    between atoms: _431  and  _433
REMARK  170  A    between atoms: _433  and  _434
REMARK  171  A    between atoms: _433  and  _436
REMARK  172  A    between atoms: _436  and  _437
REMARK  173  A    between atoms: _437  and  _438
REMARK  174  A    between atoms: _440  and  _442
REMARK  175  A    between atoms: _442  and  _443
REMARK  176  A    between atoms: _442  and  _445
REMARK  177  A    between atoms: _445  and  _446
REMARK  178  A    between atoms: _448  and  _450
REMARK  179  A    between atoms: _450  and  _451
REMARK  180  A    between atoms: _450  and  _453
REMARK  181  A    between atoms: _453  and  _454
REMARK  182  A    between atoms: _456  and  _458
REMARK  183  A    between atoms: _458  and  _459
REMARK  184  A    between atoms: _458  and  _461
REMARK  185  A    between atoms: _461  and  _462
REMARK  186  A    between atoms: _462  and  _463
REMARK  187  A    between atoms: _463  and  _464
REMARK  188  A    between atoms: _473  and  _475
REMARK  189  A    between atoms: _475  and  _476
REMARK  190  A    between atoms: _475  and  _478
REMARK  191  A    between atoms: _478  and  _479
REMARK  192  A    between atoms: _484  and  _486
REMARK  193  A    between atoms: _486  and  _487
REMARK  194  A    between atoms: _486  and  _489
REMARK  195  A    between atoms: _489  and  _490
REMARK  196  A    between atoms: _490  and  _491
REMARK  197  A    between atoms: _491  and  _492
REMARK  198  A    between atoms: _501  and  _503
REMARK  199  A    between atoms: _503  and  _504
REMARK  200  A    between atoms: _503  and  _506
REMARK  201  A    between atoms: _506  and  _507
REMARK  202  A    between atoms: _507  and  _508
REMARK  203  A    between atoms: _508  and  _509
REMARK  204  A    between atoms: _518  and  _520
REMARK  205  A    between atoms: _520  and  _521
REMARK  206  A    between atoms: _520  and  _523
REMARK  207  A    between atoms: _523  and  _524
REMARK  208  A    between atoms: _527  and  _529
REMARK  209  A    between atoms: _529  and  _530
REMARK  210  A    between atoms: _529  and  _532
REMARK  211  A    between atoms: _532  and  _533
REMARK  212  A    between atoms: _536  and  _538
REMARK  213  A    between atoms: _538  and  _539
REMARK  214  A    between atoms: _538  and  _541
REMARK  215  A    between atoms: _541  and  _542
REMARK                            x       y       z     vdW  Elec       q    Type
REMARK                         _______ _______ _______ _____ _____    ______ ____
ROOT
ATOM      1  O   HOH     1      25.691  11.216   5.537  0.00  0.00    +0.000 OA
ENDROOT
TORSDOF 0
REMARK  Name = ../refined-set-2016/3iue/3iue_pocket.pdb
REMARK  215 active torsions:
REMARK  status: ('A' for Active; 'I' for Inactive)
REMARK    1  A    between atoms: _1  and  _3
REMARK    2  A    between atoms: _3  and  _4
REMARK    3  A    between atoms: _3  and  _6
REMARK    4  A    between atoms: _10  and  _11
REMARK    5  A    between atoms: _16  and  _18
REMARK    6  A    between atoms: _18  and  _19
REMARK    7  A    between atoms: _18  and  _21
REMARK    8  A    between atoms: _21  and  _22
REMARK    9  A    between atoms: _25  and  _27
REMARK   10  A    between atoms: _27  and  _28
REMARK   11  A    between atoms: _27  and  _30
REMARK   12  A    between atoms: _30  and  _31
REMARK   13  A    between atoms: _31  and  _32
REMARK   14  A    between atoms: _34  and  _36
REMARK   15  A    between atoms: _36  and  _37
REMARK   16  A    between atoms: _39  and  _41
REMARK   17  A    between atoms: _41  and  _42
REMARK   18  A    between atoms: _45  and  _47
REMARK   19  A    between atoms: _47  and  _48
REMARK   20  A    between atoms: _47  and  _50
REMARK   21  A    between atoms: _50  and  _51
REMARK   22  A    between atoms: _54  and  _56
REMARK   23  A    between atoms: _56  and  _57
REMARK   24  A    between atoms: _56  and  _59
REMARK   25  A    between atoms: _59  and  _60
REMARK   26  A    between atoms: _65  and  _67
REMARK   27  A    between atoms: _67  and  _68
REMARK   28  A    between atoms: _67  and  _70
REMARK   29  A    between atoms: _70  and  _71
REMARK   30  A    between atoms: _71  and  _72
REMARK   31  A    between atoms: _75  and  _77
REMARK   32  A    between atoms: _77  and  _78
REMARK   33  A    between atoms: _80  and  _82
REMARK   34  A    between atoms: _82  and  _83
REMARK   35  A    between atoms: _82  and  _85
REMARK   36  A    between atoms: _85  and  _86
REMARK   37  A    between atoms: _91  and  _93
REMARK   38  A    between atoms: _93  and  _94
REMARK   39  A    between atoms: _93  and  _96
REMARK   40  A    between atoms: _96  and  _97
REMARK   41  A    between atoms: _100  and  _102
REMARK   42  A    between atoms: _102  and  _103
REMARK   43  A    between atoms: _106  and  _108
REMARK   44  A    between atoms: _108  and  _109
REMARK   45  A    between atoms: _108  and  _111
REMARK   46  A    between atoms: _111  and  _112
REMARK   47  A    between atoms: _115  and  _117
REMARK   48  A    between atoms: _117  and  _118
REMARK   49  A    between atoms: _117  and  _120
REMARK   50  A    between atoms: _123  and  _125
REMARK   51  A    between atoms: _125  and  _126
REMARK   52  A    between atoms: _125  and  _128
REMARK   53  A    between atoms: _128  and  _129
REMARK   54  A    between atoms: _131  and  _133
REMARK   55  A    between atoms: _133  and  _134
REMARK   56  A    between atoms: _133  and  _136
REMARK   57  A    between atoms: _136  and  _137
REMARK   58  A    between atoms: _140  and  _142
REMARK   59  A    between atoms: _142  and  _143
REMARK   60  A    between atoms: _142  and  _145
REMARK   61  A    between atoms: _145  and  _146
REMARK   62  A    between atoms: _152  and  _154
REMARK   63  A    between atoms: _154  and  _155
REMARK   64  A    between atoms: _154  and  _157
REMARK   65  A    between atoms: _157  and  _158
REMARK   66  A    between atoms: _163  and  _165
REMARK   67  A    between atoms: _165  and  _166
REMARK   68  A    between atoms: _165  and  _168
REMARK   69  A    between atoms: _168  and  _169
REMARK   70  A    between atoms: _169  and  _170
REMARK   71  A    between atoms: _175  and  _177
REMARK   72  A    between atoms: _177  and  _178
REMARK   73  A    between atoms: _177  and  _180
REMARK   74  A    between atoms: _180  and  _181
REMARK   75  A    between atoms: _187  and  _189
REMARK   76  A    between atoms: _189  and  _190
REMARK   77  A    between atoms: _189  and  _192
REMARK   78  A    between atoms: _192  and  _193
REMARK   79  A    between atoms: _198  and  _199
REMARK   80  A    between atoms: _202  and  _203
REMARK   81  A    between atoms: _208  and  _210
REMARK   82  A    between atoms: _210  and  _211
REMARK   83  A    between atoms: _210  and  _213
REMARK   84  A    between atoms: _213  and  _214
REMARK   85  A    between atoms: _214  and  _215
REMARK   86  A    between atoms: _218  and  _220
REMARK   87  A    between atoms: _220  and  _221
REMARK   88  A    between atoms: _220  and  _223
REMARK   89  A    between atoms: _223  and  _224
REMARK   90  A    between atoms: _229  and  _231
REMARK   91  A    between atoms: _231  and  _232
REMARK   92  A    between atoms: _231  and  _234
REMARK   93  A    between atoms: _234  and  _235
REMARK   94  A    between atoms: _241  and  _243
REMARK   95  A    between atoms: _243  and  _244
REMARK   96  A    between atoms: _243  and  _246
REMARK   97  A    between atoms: _249  and  _251
REMARK   98  A    between atoms: _251  and  _252
REMARK   99  A    between atoms: _251  and  _254
REMARK  100  A    between atoms: _257  and  _259
REMARK  101  A    between atoms: _259  and  _260
REMARK  102  A    between atoms: _259  and  _262
REMARK  103  A    between atoms: _262  and  _263
REMARK  104  A    between atoms: _269  and  _271
REMARK  105  A    between atoms: _271  and  _272
REMARK  106  A    between atoms: _271  and  _274
REMARK  107  A    between atoms: _274  and  _275
REMARK  108  A    between atoms: _281  and  _283
REMARK  109  A    between atoms: _283  and  _284
REMARK  110  A    between atoms: _286  and  _288
REMARK  111  A    between atoms: _288  and  _289
REMARK  112  A    between atoms: _288  and  _291
REMARK  113  A    between atoms: _291  and  _292
REMARK  114  A    between atoms: _292  and  _293
REMARK  115  A    between atoms: _296  and  _298
REMARK  116  A    between atoms: _298  and  _299
REMARK  117  A    between atoms: _298  and  _301
REMARK  118  A    between atoms: _301  and  _302
REMARK  119  A    between atoms: _302  and  _303
REMARK  120  A    between atoms: _303  and  _304
REMARK  121  A    between atoms: _304  and  _305
REMARK  122  A    between atoms: _309  and  _311
REMARK  123  A    between atoms: _311  and  _312
REMARK  124  A    between atoms: _311  and  _314
REMARK  125  A    between atoms: _314  and  _315
REMARK  126  A    between atoms: _318  and  _320
REMARK  127  A    between atoms: _320  and  _321
REMARK  128  A    between atoms: _320  and  _323
REMARK  129  A    between atoms: _323  and  _324
REMARK  130  A    between atoms: _329  and  _330
REMARK  131  A    between atoms: _332  and  _334
REMARK  132  A    between atoms: _334  and  _335
REMARK  133  A    between atoms: _334  and  _337
REMARK  134  A    between atoms: _337  and  _338
REMARK  135  A    between atoms: _338  and  _339
REMARK  136  A    between atoms: _344  and  _346
REMARK  137  A    between atoms: _346  and  _347
REMARK  138  A    between atoms: _346  and  _349
REMARK  139  A    between atoms: _349  and  _350
REMARK  140  A    between atoms: _353  and  _355
REMARK  141  A    between atoms: _355  and  _356
REMARK  142  A    between atoms: _355  and  _358
REMARK  143  A    between atoms: _358  and  _359
REMARK  144  A    between atoms: _362  and  _364
REMARK  145  A    between atoms: _364  and  _365
REMARK  146  A    between atoms: _367  and  _369
REMARK  147  A    between atoms: _369  and  _370
REMARK  148  A    between atoms: _369  and  _372
REMARK  149  A    between atoms: _376  and  _377
REMARK  150  A    between atoms: _382  and  _384
REMARK  151  A    between atoms: _384  and  _385
REMARK  152  A    between atoms: _384  and  _387
REMARK  153  A    between atoms: _387  and  _388
REMARK  154  A    between atoms: _391  and  _393
REMARK  155  A    between atoms: _393  and  _394
REMARK  156  A    between atoms: _393  and  _396
REMARK  157  A    between atoms: _399  and  _401
REMARK  158  A    between atoms: _401  and  _402
REMARK  159  A    between atoms: _401  and  _404
REMARK  160  A    between atoms: _404  and  _405
REMARK  161  A    between atoms: _405  and  _406
REMARK  162  A    between atoms: _406  and  _407
REMARK  163  A    between atoms: _416  and  _418
REMARK  164  A    between atoms: _418  and  _419
REMARK  165  A    between atoms: _418  and  _421
REMARK  166  A    between atoms: _421  and  _422
REMARK  167  A    between atoms: _425  and  _427
REMARK  168  A    between atoms: _427  and  _428
REMARK  169  A    between atoms: _431  and  _433
REMARK  170  A    between atoms: _433  and  _434
REMARK  171  A    between atoms: _433  and  _436
REMARK  172  A    between atoms: _436  and  _437
REMARK  173  A    between atoms: _437  and  _438
REMARK  174  A    between atoms: _440  and  _442
REMARK  175  A    between atoms: _442  and  _443
REMARK  176  A    between atoms: _442  and  _445
REMARK  177  A    between atoms: _445  and  _446
REMARK  178  A    between atoms: _448  and  _450
REMARK  179  A    between atoms: _450  and  _451
REMARK  180  A    between atoms: _450  and  _453
REMARK  181  A    between atoms: _453  and  _454
REMARK  182  A    between atoms: _456  and  _458
REMARK  183  A    between atoms: _458  and  _459
REMARK  184  A    between atoms: _458  and  _461
REMARK  185  A    between atoms: _461  and  _462
REMARK  186  A    between atoms: _462  and  _463
REMARK  187  A    between atoms: _463  and  _464
REMARK  188  A    between atoms: _473  and  _475
REMARK  189  A    between atoms: _475  and  _476
REMARK  190  A    between atoms: _475  and  _478
REMARK  191  A    between atoms: _478  and  _479
REMARK  192  A    between atoms: _484  and  _486
REMARK  193  A    between atoms: _486  and  _487
REMARK  194  A    between atoms: _486  and  _489
REMARK  195  A    between atoms: _489  and  _490
REMARK  196  A    between atoms: _490  and  _491
REMARK  197  A    between atoms: _491  and  _492
REMARK  198  A    between atoms: _501  and  _503
REMARK  199  A    between atoms: _503  and  _504
REMARK  200  A    between atoms: _503  and  _506
REMARK  201  A    between atoms: _506  and  _507
REMARK  202  A    between atoms: _507  and  _508
REMARK  203  A    between atoms: _508  and  _509
REMARK  204  A    between atoms: _518  and  _520
REMARK  205  A    between atoms: _520  and  _521
REMARK  206  A    between atoms: _520  and  _523
REMARK  207  A    between atoms: _523  and  _524
REMARK  208  A    between atoms: _527  and  _529
REMARK  209  A    between atoms: _529  and  _530
REMARK  210  A    between atoms: _529  and  _532
REMARK  211  A    between atoms: _532  and  _533
REMARK  212  A    between atoms: _536  and  _538
REMARK  213  A    between atoms: _538  and  _539
REMARK  214  A    between atoms: _538  and  _541
REMARK  215  A    between atoms: _541  and  _542
REMARK                            x       y       z     vdW  Elec       q    Type
REMARK                         _______ _______ _______ _____ _____    ______ ____
ROOT
ATOM      1  O   HOH     1      19.184   4.416   5.688  0.00  0.00    +0.000 OA
ENDROOT
TORSDOF 0
REMARK  Name = ../refined-set-2016/3iue/3iue_pocket.pdb
REMARK  215 active torsions:
REMARK  status: ('A' for Active; 'I' for Inactive)
REMARK    1  A    between atoms: _1  and  _3
REMARK    2  A    between atoms: _3  and  _4
REMARK    3  A    between atoms: _3  and  _6
REMARK    4  A    between atoms: _10  and  _11
REMARK    5  A    between atoms: _16  and  _18
REMARK    6  A    between atoms: _18  and  _19
REMARK    7  A    between atoms: _18  and  _21
REMARK    8  A    between atoms: _21  and  _22
REMARK    9  A    between atoms: _25  and  _27
REMARK   10  A    between atoms: _27  and  _28
REMARK   11  A    between atoms: _27  and  _30
REMARK   12  A    between atoms: _30  and  _31
REMARK   13  A    between atoms: _31  and  _32
REMARK   14  A    between atoms: _34  and  _36
REMARK   15  A    between atoms: _36  and  _37
REMARK   16  A    between atoms: _39  and  _41
REMARK   17  A    between atoms: _41  and  _42
REMARK   18  A    between atoms: _45  and  _47
REMARK   19  A    between atoms: _47  and  _48
REMARK   20  A    between atoms: _47  and  _50
REMARK   21  A    between atoms: _50  and  _51
REMARK   22  A    between atoms: _54  and  _56
REMARK   23  A    between atoms: _56  and  _57
REMARK   24  A    between atoms: _56  and  _59
REMARK   25  A    between atoms: _59  and  _60
REMARK   26  A    between atoms: _65  and  _67
REMARK   27  A    between atoms: _67  and  _68
REMARK   28  A    between atoms: _67  and  _70
REMARK   29  A    between atoms: _70  and  _71
REMARK   30  A    between atoms: _71  and  _72
REMARK   31  A    between atoms: _75  and  _77
REMARK   32  A    between atoms: _77  and  _78
REMARK   33  A    between atoms: _80  and  _82
REMARK   34  A    between atoms: _82  and  _83
REMARK   35  A    between atoms: _82  and  _85
REMARK   36  A    between atoms: _85  and  _86
REMARK   37  A    between atoms: _91  and  _93
REMARK   38  A    between atoms: _93  and  _94
REMARK   39  A    between atoms: _93  and  _96
REMARK   40  A    between atoms: _96  and  _97
REMARK   41  A    between atoms: _100  and  _102
REMARK   42  A    between atoms: _102  and  _103
REMARK   43  A    between atoms: _106  and  _108
REMARK   44  A    between atoms: _108  and  _109
REMARK   45  A    between atoms: _108  and  _111
REMARK   46  A    between atoms: _111  and  _112
REMARK   47  A    between atoms: _115  and  _117
REMARK   48  A    between atoms: _117  and  _118
REMARK   49  A    between atoms: _117  and  _120
REMARK   50  A    between atoms: _123  and  _125
REMARK   51  A    between atoms: _125  and  _126
REMARK   52  A    between atoms: _125  and  _128
REMARK   53  A    between atoms: _128  and  _129
REMARK   54  A    between atoms: _131  and  _133
REMARK   55  A    between atoms: _133  and  _134
REMARK   56  A    between atoms: _133  and  _136
REMARK   57  A    between atoms: _136  and  _137
REMARK   58  A    between atoms: _140  and  _142
REMARK   59  A    between atoms: _142  and  _143
REMARK   60  A    between atoms: _142  and  _145
REMARK   61  A    between atoms: _145  and  _146
REMARK   62  A    between atoms: _152  and  _154
REMARK   63  A    between atoms: _154  and  _155
REMARK   64  A    between atoms: _154  and  _157
REMARK   65  A    between atoms: _157  and  _158
REMARK   66  A    between atoms: _163  and  _165
REMARK   67  A    between atoms: _165  and  _166
REMARK   68  A    between atoms: _165  and  _168
REMARK   69  A    between atoms: _168  and  _169
REMARK   70  A    between atoms: _169  and  _170
REMARK   71  A    between atoms: _175  and  _177
REMARK   72  A    between atoms: _177  and  _178
REMARK   73  A    between atoms: _177  and  _180
REMARK   74  A    between atoms: _180  and  _181
REMARK   75  A    between atoms: _187  and  _189
REMARK   76  A    between atoms: _189  and  _190
REMARK   77  A    between atoms: _189  and  _192
REMARK   78  A    between atoms: _192  and  _193
REMARK   79  A    between atoms: _198  and  _199
REMARK   80  A    between atoms: _202  and  _203
REMARK   81  A    between atoms: _208  and  _210
REMARK   82  A    between atoms: _210  and  _211
REMARK   83  A    between atoms: _210  and  _213
REMARK   84  A    between atoms: _213  and  _214
REMARK   85  A    between atoms: _214  and  _215
REMARK   86  A    between atoms: _218  and  _220
REMARK   87  A    between atoms: _220  and  _221
REMARK   88  A    between atoms: _220  and  _223
REMARK   89  A    between atoms: _223  and  _224
REMARK   90  A    between atoms: _229  and  _231
REMARK   91  A    between atoms: _231  and  _232
REMARK   92  A    between atoms: _231  and  _234
REMARK   93  A    between atoms: _234  and  _235
REMARK   94  A    between atoms: _241  and  _243
REMARK   95  A    between atoms: _243  and  _244
REMARK   96  A    between atoms: _243  and  _246
REMARK   97  A    between atoms: _249  and  _251
REMARK   98  A    between atoms: _251  and  _252
REMARK   99  A    between atoms: _251  and  _254
REMARK  100  A    between atoms: _257  and  _259
REMARK  101  A    between atoms: _259  and  _260
REMARK  102  A    between atoms: _259  and  _262
REMARK  103  A    between atoms: _262  and  _263
REMARK  104  A    between atoms: _269  and  _271
REMARK  105  A    between atoms: _271  and  _272
REMARK  106  A    between atoms: _271  and  _274
REMARK  107  A    between atoms: _274  and  _275
REMARK  108  A    between atoms: _281  and  _283
REMARK  109  A    between atoms: _283  and  _284
REMARK  110  A    between atoms: _286  and  _288
REMARK  111  A    between atoms: _288  and  _289
REMARK  112  A    between atoms: _288  and  _291
REMARK  113  A    between atoms: _291  and  _292
REMARK  114  A    between atoms: _292  and  _293
REMARK  115  A    between atoms: _296  and  _298
REMARK  116  A    between atoms: _298  and  _299
REMARK  117  A    between atoms: _298  and  _301
REMARK  118  A    between atoms: _301  and  _302
REMARK  119  A    between atoms: _302  and  _303
REMARK  120  A    between atoms: _303  and  _304
REMARK  121  A    between atoms: _304  and  _305
REMARK  122  A    between atoms: _309  and  _311
REMARK  123  A    between atoms: _311  and  _312
REMARK  124  A    between atoms: _311  and  _314
REMARK  125  A    between atoms: _314  and  _315
REMARK  126  A    between atoms: _318  and  _320
REMARK  127  A    between atoms: _320  and  _321
REMARK  128  A    between atoms: _320  and  _323
REMARK  129  A    between atoms: _323  and  _324
REMARK  130  A    between atoms: _329  and  _330
REMARK  131  A    between atoms: _332  and  _334
REMARK  132  A    between atoms: _334  and  _335
REMARK  133  A    between atoms: _334  and  _337
REMARK  134  A    between atoms: _337  and  _338
REMARK  135  A    between atoms: _338  and  _339
REMARK  136  A    between atoms: _344  and  _346
REMARK  137  A    between atoms: _346  and  _347
REMARK  138  A    between atoms: _346  and  _349
REMARK  139  A    between atoms: _349  and  _350
REMARK  140  A    between atoms: _353  and  _355
REMARK  141  A    between atoms: _355  and  _356
REMARK  142  A    between atoms: _355  and  _358
REMARK  143  A    between atoms: _358  and  _359
REMARK  144  A    between atoms: _362  and  _364
REMARK  145  A    between atoms: _364  and  _365
REMARK  146  A    between atoms: _367  and  _369
REMARK  147  A    between atoms: _369  and  _370
REMARK  148  A    between atoms: _369  and  _372
REMARK  149  A    between atoms: _376  and  _377
REMARK  150  A    between atoms: _382  and  _384
REMARK  151  A    between atoms: _384  and  _385
REMARK  152  A    between atoms: _384  and  _387
REMARK  153  A    between atoms: _387  and  _388
REMARK  154  A    between atoms: _391  and  _393
REMARK  155  A    between atoms: _393  and  _394
REMARK  156  A    between atoms: _393  and  _396
REMARK  157  A    between atoms: _399  and  _401
REMARK  158  A    between atoms: _401  and  _402
REMARK  159  A    between atoms: _401  and  _404
REMARK  160  A    between atoms: _404  and  _405
REMARK  161  A    between atoms: _405  and  _406
REMARK  162  A    between atoms: _406  and  _407
REMARK  163  A    between atoms: _416  and  _418
REMARK  164  A    between atoms: _418  and  _419
REMARK  165  A    between atoms: _418  and  _421
REMARK  166  A    between atoms: _421  and  _422
REMARK  167  A    between atoms: _425  and  _427
REMARK  168  A    between atoms: _427  and  _428
REMARK  169  A    between atoms: _431  and  _433
REMARK  170  A    between atoms: _433  and  _434
REMARK  171  A    between atoms: _433  and  _436
REMARK  172  A    between atoms: _436  and  _437
REMARK  173  A    between atoms: _437  and  _438
REMARK  174  A    between atoms: _440  and  _442
REMARK  175  A    between atoms: _442  and  _443
REMARK  176  A    between atoms: _442  and  _445
REMARK  177  A    between atoms: _445  and  _446
REMARK  178  A    between atoms: _448  and  _450
REMARK  179  A    between atoms: _450  and  _451
REMARK  180  A    between atoms: _450  and  _453
REMARK  181  A    between atoms: _453  and  _454
REMARK  182  A    between atoms: _456  and  _458
REMARK  183  A    between atoms: _458  and  _459
REMARK  184  A    between atoms: _458  and  _461
REMARK  185  A    between atoms: _461  and  _462
REMARK  186  A    between atoms: _462  and  _463
REMARK  187  A    between atoms: _463  and  _464
REMARK  188  A    between atoms: _473  and  _475
REMARK  189  A    between atoms: _475  and  _476
REMARK  190  A    between atoms: _475  and  _478
REMARK  191  A    between atoms: _478  and  _479
REMARK  192  A    between atoms: _484  and  _486
REMARK  193  A    between atoms: _486  and  _487
REMARK  194  A    between atoms: _486  and  _489
REMARK  195  A    between atoms: _489  and  _490
REMARK  196  A    between atoms: _490  and  _491
REMARK  197  A    between atoms: _491  and  _492
REMARK  198  A    between atoms: _501  and  _503
REMARK  199  A    between atoms: _503  and  _504
REMARK  200  A    between atoms: _503  and  _506
REMARK  201  A    between atoms: _506  and  _507
REMARK  202  A    between atoms: _507  and  _508
REMARK  203  A    between atoms: _508  and  _509
REMARK  204  A    between atoms: _518  and  _520
REMARK  205  A    between atoms: _520  and  _521
REMARK  206  A    between atoms: _520  and  _523
REMARK  207  A    between atoms: _523  and  _524
REMARK  208  A    between atoms: _527  and  _529
REMARK  209  A    between atoms: _529  and  _530
REMARK  210  A    between atoms: _529  and  _532
REMARK  211  A    between atoms: _532  and  _533
REMARK  212  A    between atoms: _536  and  _538
REMARK  213  A    between atoms: _538  and  _539
REMARK  214  A    between atoms: _538  and  _541
REMARK  215  A    between atoms: _541  and  _542
REMARK                            x       y       z     vdW  Elec       q    Type
REMARK                         _______ _______ _______ _____ _____    ______ ____
ROOT
ATOM      1  O   HOH     1       6.153   9.679  -8.495  0.00  0.00    +0.000 OA
ENDROOT
TORSDOF 0
REMARK  Name = ../refined-set-2016/3iue/3iue_pocket.pdb
REMARK  215 active torsions:
REMARK  status: ('A' for Active; 'I' for Inactive)
REMARK    1  A    between atoms: _1  and  _3
REMARK    2  A    between atoms: _3  and  _4
REMARK    3  A    between atoms: _3  and  _6
REMARK    4  A    between atoms: _10  and  _11
REMARK    5  A    between atoms: _16  and  _18
REMARK    6  A    between atoms: _18  and  _19
REMARK    7  A    between atoms: _18  and  _21
REMARK    8  A    between atoms: _21  and  _22
REMARK    9  A    between atoms: _25  and  _27
REMARK   10  A    between atoms: _27  and  _28
REMARK   11  A    between atoms: _27  and  _30
REMARK   12  A    between atoms: _30  and  _31
REMARK   13  A    between atoms: _31  and  _32
REMARK   14  A    between atoms: _34  and  _36
REMARK   15  A    between atoms: _36  and  _37
REMARK   16  A    between atoms: _39  and  _41
REMARK   17  A    between atoms: _41  and  _42
REMARK   18  A    between atoms: _45  and  _47
REMARK   19  A    between atoms: _47  and  _48
REMARK   20  A    between atoms: _47  and  _50
REMARK   21  A    between atoms: _50  and  _51
REMARK   22  A    between atoms: _54  and  _56
REMARK   23  A    between atoms: _56  and  _57
REMARK   24  A    between atoms: _56  and  _59
REMARK   25  A    between atoms: _59  and  _60
REMARK   26  A    between atoms: _65  and  _67
REMARK   27  A    between atoms: _67  and  _68
REMARK   28  A    between atoms: _67  and  _70
REMARK   29  A    between atoms: _70  and  _71
REMARK   30  A    between atoms: _71  and  _72
REMARK   31  A    between atoms: _75  and  _77
REMARK   32  A    between atoms: _77  and  _78
REMARK   33  A    between atoms: _80  and  _82
REMARK   34  A    between atoms: _82  and  _83
REMARK   35  A    between atoms: _82  and  _85
REMARK   36  A    between atoms: _85  and  _86
REMARK   37  A    between atoms: _91  and  _93
REMARK   38  A    between atoms: _93  and  _94
REMARK   39  A    between atoms: _93  and  _96
REMARK   40  A    between atoms: _96  and  _97
REMARK   41  A    between atoms: _100  and  _102
REMARK   42  A    between atoms: _102  and  _103
REMARK   43  A    between atoms: _106  and  _108
REMARK   44  A    between atoms: _108  and  _109
REMARK   45  A    between atoms: _108  and  _111
REMARK   46  A    between atoms: _111  and  _112
REMARK   47  A    between atoms: _115  and  _117
REMARK   48  A    between atoms: _117  and  _118
REMARK   49  A    between atoms: _117  and  _120
REMARK   50  A    between atoms: _123  and  _125
REMARK   51  A    between atoms: _125  and  _126
REMARK   52  A    between atoms: _125  and  _128
REMARK   53  A    between atoms: _128  and  _129
REMARK   54  A    between atoms: _131  and  _133
REMARK   55  A    between atoms: _133  and  _134
REMARK   56  A    between atoms: _133  and  _136
REMARK   57  A    between atoms: _136  and  _137
REMARK   58  A    between atoms: _140  and  _142
REMARK   59  A    between atoms: _142  and  _143
REMARK   60  A    between atoms: _142  and  _145
REMARK   61  A    between atoms: _145  and  _146
REMARK   62  A    between atoms: _152  and  _154
REMARK   63  A    between atoms: _154  and  _155
REMARK   64  A    between atoms: _154  and  _157
REMARK   65  A    between atoms: _157  and  _158
REMARK   66  A    between atoms: _163  and  _165
REMARK   67  A    between atoms: _165  and  _166
REMARK   68  A    between atoms: _165  and  _168
REMARK   69  A    between atoms: _168  and  _169
REMARK   70  A    between atoms: _169  and  _170
REMARK   71  A    between atoms: _175  and  _177
REMARK   72  A    between atoms: _177  and  _178
REMARK   73  A    between atoms: _177  and  _180
REMARK   74  A    between atoms: _180  and  _181
REMARK   75  A    between atoms: _187  and  _189
REMARK   76  A    between atoms: _189  and  _190
REMARK   77  A    between atoms: _189  and  _192
REMARK   78  A    between atoms: _192  and  _193
REMARK   79  A    between atoms: _198  and  _199
REMARK   80  A    between atoms: _202  and  _203
REMARK   81  A    between atoms: _208  and  _210
REMARK   82  A    between atoms: _210  and  _211
REMARK   83  A    between atoms: _210  and  _213
REMARK   84  A    between atoms: _213  and  _214
REMARK   85  A    between atoms: _214  and  _215
REMARK   86  A    between atoms: _218  and  _220
REMARK   87  A    between atoms: _220  and  _221
REMARK   88  A    between atoms: _220  and  _223
REMARK   89  A    between atoms: _223  and  _224
REMARK   90  A    between atoms: _229  and  _231
REMARK   91  A    between atoms: _231  and  _232
REMARK   92  A    between atoms: _231  and  _234
REMARK   93  A    between atoms: _234  and  _235
REMARK   94  A    between atoms: _241  and  _243
REMARK   95  A    between atoms: _243  and  _244
REMARK   96  A    between atoms: _243  and  _246
REMARK   97  A    between atoms: _249  and  _251
REMARK   98  A    between atoms: _251  and  _252
REMARK   99  A    between atoms: _251  and  _254
REMARK  100  A    between atoms: _257  and  _259
REMARK  101  A    between atoms: _259  and  _260
REMARK  102  A    between atoms: _259  and  _262
REMARK  103  A    between atoms: _262  and  _263
REMARK  104  A    between atoms: _269  and  _271
REMARK  105  A    between atoms: _271  and  _272
REMARK  106  A    between atoms: _271  and  _274
REMARK  107  A    between atoms: _274  and  _275
REMARK  108  A    between atoms: _281  and  _283
REMARK  109  A    between atoms: _283  and  _284
REMARK  110  A    between atoms: _286  and  _288
REMARK  111  A    between atoms: _288  and  _289
REMARK  112  A    between atoms: _288  and  _291
REMARK  113  A    between atoms: _291  and  _292
REMARK  114  A    between atoms: _292  and  _293
REMARK  115  A    between atoms: _296  and  _298
REMARK  116  A    between atoms: _298  and  _299
REMARK  117  A    between atoms: _298  and  _301
REMARK  118  A    between atoms: _301  and  _302
REMARK  119  A    between atoms: _302  and  _303
REMARK  120  A    between atoms: _303  and  _304
REMARK  121  A    between atoms: _304  and  _305
REMARK  122  A    between atoms: _309  and  _311
REMARK  123  A    between atoms: _311  and  _312
REMARK  124  A    between atoms: _311  and  _314
REMARK  125  A    between atoms: _314  and  _315
REMARK  126  A    between atoms: _318  and  _320
REMARK  127  A    between atoms: _320  and  _321
REMARK  128  A    between atoms: _320  and  _323
REMARK  129  A    between atoms: _323  and  _324
REMARK  130  A    between atoms: _329  and  _330
REMARK  131  A    between atoms: _332  and  _334
REMARK  132  A    between atoms: _334  and  _335
REMARK  133  A    between atoms: _334  and  _337
REMARK  134  A    between atoms: _337  and  _338
REMARK  135  A    between atoms: _338  and  _339
REMARK  136  A    between atoms: _344  and  _346
REMARK  137  A    between atoms: _346  and  _347
REMARK  138  A    between atoms: _346  and  _349
REMARK  139  A    between atoms: _349  and  _350
REMARK  140  A    between atoms: _353  and  _355
REMARK  141  A    between atoms: _355  and  _356
REMARK  142  A    between atoms: _355  and  _358
REMARK  143  A    between atoms: _358  and  _359
REMARK  144  A    between atoms: _362  and  _364
REMARK  145  A    between atoms: _364  and  _365
REMARK  146  A    between atoms: _367  and  _369
REMARK  147  A    between atoms: _369  and  _370
REMARK  148  A    between atoms: _369  and  _372
REMARK  149  A    between atoms: _376  and  _377
REMARK  150  A    between atoms: _382  and  _384
REMARK  151  A    between atoms: _384  and  _385
REMARK  152  A    between atoms: _384  and  _387
REMARK  153  A    between atoms: _387  and  _388
REMARK  154  A    between atoms: _391  and  _393
REMARK  155  A    between atoms: _393  and  _394
REMARK  156  A    between atoms: _393  and  _396
REMARK  157  A    between atoms: _399  and  _401
REMARK  158  A    between atoms: _401  and  _402
REMARK  159  A    between atoms: _401  and  _404
REMARK  160  A    between atoms: _404  and  _405
REMARK  161  A    between atoms: _405  and  _406
REMARK  162  A    between atoms: _406  and  _407
REMARK  163  A    between atoms: _416  and  _418
REMARK  164  A    between atoms: _418  and  _419
REMARK  165  A    between atoms: _418  and  _421
REMARK  166  A    between atoms: _421  and  _422
REMARK  167  A    between atoms: _425  and  _427
REMARK  168  A    between atoms: _427  and  _428
REMARK  169  A    between atoms: _431  and  _433
REMARK  170  A    between atoms: _433  and  _434
REMARK  171  A    between atoms: _433  and  _436
REMARK  172  A    between atoms: _436  and  _437
REMARK  173  A    between atoms: _437  and  _438
REMARK  174  A    between atoms: _440  and  _442
REMARK  175  A    between atoms: _442  and  _443
REMARK  176  A    between atoms: _442  and  _445
REMARK  177  A    between atoms: _445  and  _446
REMARK  178  A    between atoms: _448  and  _450
REMARK  179  A    between atoms: _450  and  _451
REMARK  180  A    between atoms: _450  and  _453
REMARK  181  A    between atoms: _453  and  _454
REMARK  182  A    between atoms: _456  and  _458
REMARK  183  A    between atoms: _458  and  _459
REMARK  184  A    between atoms: _458  and  _461
REMARK  185  A    between atoms: _461  and  _462
REMARK  186  A    between atoms: _462  and  _463
REMARK  187  A    between atoms: _463  and  _464
REMARK  188  A    between atoms: _473  and  _475
REMARK  189  A    between atoms: _475  and  _476
REMARK  190  A    between atoms: _475  and  _478
REMARK  191  A    between atoms: _478  and  _479
REMARK  192  A    between atoms: _484  and  _486
REMARK  193  A    between atoms: _486  and  _487
REMARK  194  A    between atoms: _486  and  _489
REMARK  195  A    between atoms: _489  and  _490
REMARK  196  A    between atoms: _490  and  _491
REMARK  197  A    between atoms: _491  and  _492
REMARK  198  A    between atoms: _501  and  _503
REMARK  199  A    between atoms: _503  and  _504
REMARK  200  A    between atoms: _503  and  _506
REMARK  201  A    between atoms: _506  and  _507
REMARK  202  A    between atoms: _507  and  _508
REMARK  203  A    between atoms: _508  and  _509
REMARK  204  A    between atoms: _518  and  _520
REMARK  205  A    between atoms: _520  and  _521
REMARK  206  A    between atoms: _520  and  _523
REMARK  207  A    between atoms: _523  and  _524
REMARK  208  A    between atoms: _527  and  _529
REMARK  209  A    between atoms: _529  and  _530
REMARK  210  A    between atoms: _529  and  _532
REMARK  211  A    between atoms: _532  and  _533
REMARK  212  A    between atoms: _536  and  _538
REMARK  213  A    between atoms: _538  and  _539
REMARK  214  A    between atoms: _538  and  _541
REMARK  215  A    between atoms: _541  and  _542
REMARK                            x       y       z     vdW  Elec       q    Type
REMARK                         _______ _______ _______ _____ _____    ______ ____
ROOT
ATOM      1  O   HOH     1       4.775  11.514  -7.169  0.00  0.00    +0.000 OA
ENDROOT
TORSDOF 0
REMARK  Name = ../refined-set-2016/3iue/3iue_pocket.pdb
REMARK  215 active torsions:
REMARK  status: ('A' for Active; 'I' for Inactive)
REMARK    1  A    between atoms: _1  and  _3
REMARK    2  A    between atoms: _3  and  _4
REMARK    3  A    between atoms: _3  and  _6
REMARK    4  A    between atoms: _10  and  _11
REMARK    5  A    between atoms: _16  and  _18
REMARK    6  A    between atoms: _18  and  _19
REMARK    7  A    between atoms: _18  and  _21
REMARK    8  A    between atoms: _21  and  _22
REMARK    9  A    between atoms: _25  and  _27
REMARK   10  A    between atoms: _27  and  _28
REMARK   11  A    between atoms: _27  and  _30
REMARK   12  A    between atoms: _30  and  _31
REMARK   13  A    between atoms: _31  and  _32
REMARK   14  A    between atoms: _34  and  _36
REMARK   15  A    between atoms: _36  and  _37
REMARK   16  A    between atoms: _39  and  _41
REMARK   17  A    between atoms: _41  and  _42
REMARK   18  A    between atoms: _45  and  _47
REMARK   19  A    between atoms: _47  and  _48
REMARK   20  A    between atoms: _47  and  _50
REMARK   21  A    between atoms: _50  and  _51
REMARK   22  A    between atoms: _54  and  _56
REMARK   23  A    between atoms: _56  and  _57
REMARK   24  A    between atoms: _56  and  _59
REMARK   25  A    between atoms: _59  and  _60
REMARK   26  A    between atoms: _65  and  _67
REMARK   27  A    between atoms: _67  and  _68
REMARK   28  A    between atoms: _67  and  _70
REMARK   29  A    between atoms: _70  and  _71
REMARK   30  A    between atoms: _71  and  _72
REMARK   31  A    between atoms: _75  and  _77
REMARK   32  A    between atoms: _77  and  _78
REMARK   33  A    between atoms: _80  and  _82
REMARK   34  A    between atoms: _82  and  _83
REMARK   35  A    between atoms: _82  and  _85
REMARK   36  A    between atoms: _85  and  _86
REMARK   37  A    between atoms: _91  and  _93
REMARK   38  A    between atoms: _93  and  _94
REMARK   39  A    between atoms: _93  and  _96
REMARK   40  A    between atoms: _96  and  _97
REMARK   41  A    between atoms: _100  and  _102
REMARK   42  A    between atoms: _102  and  _103
REMARK   43  A    between atoms: _106  and  _108
REMARK   44  A    between atoms: _108  and  _109
REMARK   45  A    between atoms: _108  and  _111
REMARK   46  A    between atoms: _111  and  _112
REMARK   47  A    between atoms: _115  and  _117
REMARK   48  A    between atoms: _117  and  _118
REMARK   49  A    between atoms: _117  and  _120
REMARK   50  A    between atoms: _123  and  _125
REMARK   51  A    between atoms: _125  and  _126
REMARK   52  A    between atoms: _125  and  _128
REMARK   53  A    between atoms: _128  and  _129
REMARK   54  A    between atoms: _131  and  _133
REMARK   55  A    between atoms: _133  and  _134
REMARK   56  A    between atoms: _133  and  _136
REMARK   57  A    between atoms: _136  and  _137
REMARK   58  A    between atoms: _140  and  _142
REMARK   59  A    between atoms: _142  and  _143
REMARK   60  A    between atoms: _142  and  _145
REMARK   61  A    between atoms: _145  and  _146
REMARK   62  A    between atoms: _152  and  _154
REMARK   63  A    between atoms: _154  and  _155
REMARK   64  A    between atoms: _154  and  _157
REMARK   65  A    between atoms: _157  and  _158
REMARK   66  A    between atoms: _163  and  _165
REMARK   67  A    between atoms: _165  and  _166
REMARK   68  A    between atoms: _165  and  _168
REMARK   69  A    between atoms: _168  and  _169
REMARK   70  A    between atoms: _169  and  _170
REMARK   71  A    between atoms: _175  and  _177
REMARK   72  A    between atoms: _177  and  _178
REMARK   73  A    between atoms: _177  and  _180
REMARK   74  A    between atoms: _180  and  _181
REMARK   75  A    between atoms: _187  and  _189
REMARK   76  A    between atoms: _189  and  _190
REMARK   77  A    between atoms: _189  and  _192
REMARK   78  A    between atoms: _192  and  _193
REMARK   79  A    between atoms: _198  and  _199
REMARK   80  A    between atoms: _202  and  _203
REMARK   81  A    between atoms: _208  and  _210
REMARK   82  A    between atoms: _210  and  _211
REMARK   83  A    between atoms: _210  and  _213
REMARK   84  A    between atoms: _213  and  _214
REMARK   85  A    between atoms: _214  and  _215
REMARK   86  A    between atoms: _218  and  _220
REMARK   87  A    between atoms: _220  and  _221
REMARK   88  A    between atoms: _220  and  _223
REMARK   89  A    between atoms: _223  and  _224
REMARK   90  A    between atoms: _229  and  _231
REMARK   91  A    between atoms: _231  and  _232
REMARK   92  A    between atoms: _231  and  _234
REMARK   93  A    between atoms: _234  and  _235
REMARK   94  A    between atoms: _241  and  _243
REMARK   95  A    between atoms: _243  and  _244
REMARK   96  A    between atoms: _243  and  _246
REMARK   97  A    between atoms: _249  and  _251
REMARK   98  A    between atoms: _251  and  _252
REMARK   99  A    between atoms: _251  and  _254
REMARK  100  A    between atoms: _257  and  _259
REMARK  101  A    between atoms: _259  and  _260
REMARK  102  A    between atoms: _259  and  _262
REMARK  103  A    between atoms: _262  and  _263
REMARK  104  A    between atoms: _269  and  _271
REMARK  105  A    between atoms: _271  and  _272
REMARK  106  A    between atoms: _271  and  _274
REMARK  107  A    between atoms: _274  and  _275
REMARK  108  A    between atoms: _281  and  _283
REMARK  109  A    between atoms: _283  and  _284
REMARK  110  A    between atoms: _286  and  _288
REMARK  111  A    between atoms: _288  and  _289
REMARK  112  A    between atoms: _288  and  _291
REMARK  113  A    between atoms: _291  and  _292
REMARK  114  A    between atoms: _292  and  _293
REMARK  115  A    between atoms: _296  and  _298
REMARK  116  A    between atoms: _298  and  _299
REMARK  117  A    between atoms: _298  and  _301
REMARK  118  A    between atoms: _301  and  _302
REMARK  119  A    between atoms: _302  and  _303
REMARK  120  A    between atoms: _303  and  _304
REMARK  121  A    between atoms: _304  and  _305
REMARK  122  A    between atoms: _309  and  _311
REMARK  123  A    between atoms: _311  and  _312
REMARK  124  A    between atoms: _311  and  _314
REMARK  125  A    between atoms: _314  and  _315
REMARK  126  A    between atoms: _318  and  _320
REMARK  127  A    between atoms: _320  and  _321
REMARK  128  A    between atoms: _320  and  _323
REMARK  129  A    between atoms: _323  and  _324
REMARK  130  A    between atoms: _329  and  _330
REMARK  131  A    between atoms: _332  and  _334
REMARK  132  A    between atoms: _334  and  _335
REMARK  133  A    between atoms: _334  and  _337
REMARK  134  A    between atoms: _337  and  _338
REMARK  135  A    between atoms: _338  and  _339
REMARK  136  A    between atoms: _344  and  _346
REMARK  137  A    between atoms: _346  and  _347
REMARK  138  A    between atoms: _346  and  _349
REMARK  139  A    between atoms: _349  and  _350
REMARK  140  A    between atoms: _353  and  _355
REMARK  141  A    between atoms: _355  and  _356
REMARK  142  A    between atoms: _355  and  _358
REMARK  143  A    between atoms: _358  and  _359
REMARK  144  A    between atoms: _362  and  _364
REMARK  145  A    between atoms: _364  and  _365
REMARK  146  A    between atoms: _367  and  _369
REMARK  147  A    between atoms: _369  and  _370
REMARK  148  A    between atoms: _369  and  _372
REMARK  149  A    between atoms: _376  and  _377
REMARK  150  A    between atoms: _382  and  _384
REMARK  151  A    between atoms: _384  and  _385
REMARK  152  A    between atoms: _384  and  _387
REMARK  153  A    between atoms: _387  and  _388
REMARK  154  A    between atoms: _391  and  _393
REMARK  155  A    between atoms: _393  and  _394
REMARK  156  A    between atoms: _393  and  _396
REMARK  157  A    between atoms: _399  and  _401
REMARK  158  A    between atoms: _401  and  _402
REMARK  159  A    between atoms: _401  and  _404
REMARK  160  A    between atoms: _404  and  _405
REMARK  161  A    between atoms: _405  and  _406
REMARK  162  A    between atoms: _406  and  _407
REMARK  163  A    between atoms: _416  and  _418
REMARK  164  A    between atoms: _418  and  _419
REMARK  165  A    between atoms: _418  and  _421
REMARK  166  A    between atoms: _421  and  _422
REMARK  167  A    between atoms: _425  and  _427
REMARK  168  A    between atoms: _427  and  _428
REMARK  169  A    between atoms: _431  and  _433
REMARK  170  A    between atoms: _433  and  _434
REMARK  171  A    between atoms: _433  and  _436
REMARK  172  A    between atoms: _436  and  _437
REMARK  173  A    between atoms: _437  and  _438
REMARK  174  A    between atoms: _440  and  _442
REMARK  175  A    between atoms: _442  and  _443
REMARK  176  A    between atoms: _442  and  _445
REMARK  177  A    between atoms: _445  and  _446
REMARK  178  A    between atoms: _448  and  _450
REMARK  179  A    between atoms: _450  and  _451
REMARK  180  A    between atoms: _450  and  _453
REMARK  181  A    between atoms: _453  and  _454
REMARK  182  A    between atoms: _456  and  _458
REMARK  183  A    between atoms: _458  and  _459
REMARK  184  A    between atoms: _458  and  _461
REMARK  185  A    between atoms: _461  and  _462
REMARK  186  A    between atoms: _462  and  _463
REMARK  187  A    between atoms: _463  and  _464
REMARK  188  A    between atoms: _473  and  _475
REMARK  189  A    between atoms: _475  and  _476
REMARK  190  A    between atoms: _475  and  _478
REMARK  191  A    between atoms: _478  and  _479
REMARK  192  A    between atoms: _484  and  _486
REMARK  193  A    between atoms: _486  and  _487
REMARK  194  A    between atoms: _486  and  _489
REMARK  195  A    between atoms: _489  and  _490
REMARK  196  A    between atoms: _490  and  _491
REMARK  197  A    between atoms: _491  and  _492
REMARK  198  A    between atoms: _501  and  _503
REMARK  199  A    between atoms: _503  and  _504
REMARK  200  A    between atoms: _503  and  _506
REMARK  201  A    between atoms: _506  and  _507
REMARK  202  A    between atoms: _507  and  _508
REMARK  203  A    between atoms: _508  and  _509
REMARK  204  A    between atoms: _518  and  _520
REMARK  205  A    between atoms: _520  and  _521
REMARK  206  A    between atoms: _520  and  _523
REMARK  207  A    between atoms: _523  and  _524
REMARK  208  A    between atoms: _527  and  _529
REMARK  209  A    between atoms: _529  and  _530
REMARK  210  A    between atoms: _529  and  _532
REMARK  211  A    between atoms: _532  and  _533
REMARK  212  A    between atoms: _536  and  _538
REMARK  213  A    between atoms: _538  and  _539
REMARK  214  A    between atoms: _538  and  _541
REMARK  215  A    between atoms: _541  and  _542
REMARK                            x       y       z     vdW  Elec       q    Type
REMARK                         _______ _______ _______ _____ _____    ______ ____
ROOT
ATOM      1  O   HOH     1      12.684  10.828 -12.883  0.00  0.00    +0.000 OA
ENDROOT
TORSDOF 0
REMARK  Name = ../refined-set-2016/3iue/3iue_pocket.pdb
REMARK  215 active torsions:
REMARK  status: ('A' for Active; 'I' for Inactive)
REMARK    1  A    between atoms: _1  and  _3
REMARK    2  A    between atoms: _3  and  _4
REMARK    3  A    between atoms: _3  and  _6
REMARK    4  A    between atoms: _10  and  _11
REMARK    5  A    between atoms: _16  and  _18
REMARK    6  A    between atoms: _18  and  _19
REMARK    7  A    between atoms: _18  and  _21
REMARK    8  A    between atoms: _21  and  _22
REMARK    9  A    between atoms: _25  and  _27
REMARK   10  A    between atoms: _27  and  _28
REMARK   11  A    between atoms: _27  and  _30
REMARK   12  A    between atoms: _30  and  _31
REMARK   13  A    between atoms: _31  and  _32
REMARK   14  A    between atoms: _34  and  _36
REMARK   15  A    between atoms: _36  and  _37
REMARK   16  A    between atoms: _39  and  _41
REMARK   17  A    between atoms: _41  and  _42
REMARK   18  A    between atoms: _45  and  _47
REMARK   19  A    between atoms: _47  and  _48
REMARK   20  A    between atoms: _47  and  _50
REMARK   21  A    between atoms: _50  and  _51
REMARK   22  A    between atoms: _54  and  _56
REMARK   23  A    between atoms: _56  and  _57
REMARK   24  A    between atoms: _56  and  _59
REMARK   25  A    between atoms: _59  and  _60
REMARK   26  A    between atoms: _65  and  _67
REMARK   27  A    between atoms: _67  and  _68
REMARK   28  A    between atoms: _67  and  _70
REMARK   29  A    between atoms: _70  and  _71
REMARK   30  A    between atoms: _71  and  _72
REMARK   31  A    between atoms: _75  and  _77
REMARK   32  A    between atoms: _77  and  _78
REMARK   33  A    between atoms: _80  and  _82
REMARK   34  A    between atoms: _82  and  _83
REMARK   35  A    between atoms: _82  and  _85
REMARK   36  A    between atoms: _85  and  _86
REMARK   37  A    between atoms: _91  and  _93
REMARK   38  A    between atoms: _93  and  _94
REMARK   39  A    between atoms: _93  and  _96
REMARK   40  A    between atoms: _96  and  _97
REMARK   41  A    between atoms: _100  and  _102
REMARK   42  A    between atoms: _102  and  _103
REMARK   43  A    between atoms: _106  and  _108
REMARK   44  A    between atoms: _108  and  _109
REMARK   45  A    between atoms: _108  and  _111
REMARK   46  A    between atoms: _111  and  _112
REMARK   47  A    between atoms: _115  and  _117
REMARK   48  A    between atoms: _117  and  _118
REMARK   49  A    between atoms: _117  and  _120
REMARK   50  A    between atoms: _123  and  _125
REMARK   51  A    between atoms: _125  and  _126
REMARK   52  A    between atoms: _125  and  _128
REMARK   53  A    between atoms: _128  and  _129
REMARK   54  A    between atoms: _131  and  _133
REMARK   55  A    between atoms: _133  and  _134
REMARK   56  A    between atoms: _133  and  _136
REMARK   57  A    between atoms: _136  and  _137
REMARK   58  A    between atoms: _140  and  _142
REMARK   59  A    between atoms: _142  and  _143
REMARK   60  A    between atoms: _142  and  _145
REMARK   61  A    between atoms: _145  and  _146
REMARK   62  A    between atoms: _152  and  _154
REMARK   63  A    between atoms: _154  and  _155
REMARK   64  A    between atoms: _154  and  _157
REMARK   65  A    between atoms: _157  and  _158
REMARK   66  A    between atoms: _163  and  _165
REMARK   67  A    between atoms: _165  and  _166
REMARK   68  A    between atoms: _165  and  _168
REMARK   69  A    between atoms: _168  and  _169
REMARK   70  A    between atoms: _169  and  _170
REMARK   71  A    between atoms: _175  and  _177
REMARK   72  A    between atoms: _177  and  _178
REMARK   73  A    between atoms: _177  and  _180
REMARK   74  A    between atoms: _180  and  _181
REMARK   75  A    between atoms: _187  and  _189
REMARK   76  A    between atoms: _189  and  _190
REMARK   77  A    between atoms: _189  and  _192
REMARK   78  A    between atoms: _192  and  _193
REMARK   79  A    between atoms: _198  and  _199
REMARK   80  A    between atoms: _202  and  _203
REMARK   81  A    between atoms: _208  and  _210
REMARK   82  A    between atoms: _210  and  _211
REMARK   83  A    between atoms: _210  and  _213
REMARK   84  A    between atoms: _213  and  _214
REMARK   85  A    between atoms: _214  and  _215
REMARK   86  A    between atoms: _218  and  _220
REMARK   87  A    between atoms: _220  and  _221
REMARK   88  A    between atoms: _220  and  _223
REMARK   89  A    between atoms: _223  and  _224
REMARK   90  A    between atoms: _229  and  _231
REMARK   91  A    between atoms: _231  and  _232
REMARK   92  A    between atoms: _231  and  _234
REMARK   93  A    between atoms: _234  and  _235
REMARK   94  A    between atoms: _241  and  _243
REMARK   95  A    between atoms: _243  and  _244
REMARK   96  A    between atoms: _243  and  _246
REMARK   97  A    between atoms: _249  and  _251
REMARK   98  A    between atoms: _251  and  _252
REMARK   99  A    between atoms: _251  and  _254
REMARK  100  A    between atoms: _257  and  _259
REMARK  101  A    between atoms: _259  and  _260
REMARK  102  A    between atoms: _259  and  _262
REMARK  103  A    between atoms: _262  and  _263
REMARK  104  A    between atoms: _269  and  _271
REMARK  105  A    between atoms: _271  and  _272
REMARK  106  A    between atoms: _271  and  _274
REMARK  107  A    between atoms: _274  and  _275
REMARK  108  A    between atoms: _281  and  _283
REMARK  109  A    between atoms: _283  and  _284
REMARK  110  A    between atoms: _286  and  _288
REMARK  111  A    between atoms: _288  and  _289
REMARK  112  A    between atoms: _288  and  _291
REMARK  113  A    between atoms: _291  and  _292
REMARK  114  A    between atoms: _292  and  _293
REMARK  115  A    between atoms: _296  and  _298
REMARK  116  A    between atoms: _298  and  _299
REMARK  117  A    between atoms: _298  and  _301
REMARK  118  A    between atoms: _301  and  _302
REMARK  119  A    between atoms: _302  and  _303
REMARK  120  A    between atoms: _303  and  _304
REMARK  121  A    between atoms: _304  and  _305
REMARK  122  A    between atoms: _309  and  _311
REMARK  123  A    between atoms: _311  and  _312
REMARK  124  A    between atoms: _311  and  _314
REMARK  125  A    between atoms: _314  and  _315
REMARK  126  A    between atoms: _318  and  _320
REMARK  127  A    between atoms: _320  and  _321
REMARK  128  A    between atoms: _320  and  _323
REMARK  129  A    between atoms: _323  and  _324
REMARK  130  A    between atoms: _329  and  _330
REMARK  131  A    between atoms: _332  and  _334
REMARK  132  A    between atoms: _334  and  _335
REMARK  133  A    between atoms: _334  and  _337
REMARK  134  A    between atoms: _337  and  _338
REMARK  135  A    between atoms: _338  and  _339
REMARK  136  A    between atoms: _344  and  _346
REMARK  137  A    between atoms: _346  and  _347
REMARK  138  A    between atoms: _346  and  _349
REMARK  139  A    between atoms: _349  and  _350
REMARK  140  A    between atoms: _353  and  _355
REMARK  141  A    between atoms: _355  and  _356
REMARK  142  A    between atoms: _355  and  _358
REMARK  143  A    between atoms: _358  and  _359
REMARK  144  A    between atoms: _362  and  _364
REMARK  145  A    between atoms: _364  and  _365
REMARK  146  A    between atoms: _367  and  _369
REMARK  147  A    between atoms: _369  and  _370
REMARK  148  A    between atoms: _369  and  _372
REMARK  149  A    between atoms: _376  and  _377
REMARK  150  A    between atoms: _382  and  _384
REMARK  151  A    between atoms: _384  and  _385
REMARK  152  A    between atoms: _384  and  _387
REMARK  153  A    between atoms: _387  and  _388
REMARK  154  A    between atoms: _391  and  _393
REMARK  155  A    between atoms: _393  and  _394
REMARK  156  A    between atoms: _393  and  _396
REMARK  157  A    between atoms: _399  and  _401
REMARK  158  A    between atoms: _401  and  _402
REMARK  159  A    between atoms: _401  and  _404
REMARK  160  A    between atoms: _404  and  _405
REMARK  161  A    between atoms: _405  and  _406
REMARK  162  A    between atoms: _406  and  _407
REMARK  163  A    between atoms: _416  and  _418
REMARK  164  A    between atoms: _418  and  _419
REMARK  165  A    between atoms: _418  and  _421
REMARK  166  A    between atoms: _421  and  _422
REMARK  167  A    between atoms: _425  and  _427
REMARK  168  A    between atoms: _427  and  _428
REMARK  169  A    between atoms: _431  and  _433
REMARK  170  A    between atoms: _433  and  _434
REMARK  171  A    between atoms: _433  and  _436
REMARK  172  A    between atoms: _436  and  _437
REMARK  173  A    between atoms: _437  and  _438
REMARK  174  A    between atoms: _440  and  _442
REMARK  175  A    between atoms: _442  and  _443
REMARK  176  A    between atoms: _442  and  _445
REMARK  177  A    between atoms: _445  and  _446
REMARK  178  A    between atoms: _448  and  _450
REMARK  179  A    between atoms: _450  and  _451
REMARK  180  A    between atoms: _450  and  _453
REMARK  181  A    between atoms: _453  and  _454
REMARK  182  A    between atoms: _456  and  _458
REMARK  183  A    between atoms: _458  and  _459
REMARK  184  A    between atoms: _458  and  _461
REMARK  185  A    between atoms: _461  and  _462
REMARK  186  A    between atoms: _462  and  _463
REMARK  187  A    between atoms: _463  and  _464
REMARK  188  A    between atoms: _473  and  _475
REMARK  189  A    between atoms: _475  and  _476
REMARK  190  A    between atoms: _475  and  _478
REMARK  191  A    between atoms: _478  and  _479
REMARK  192  A    between atoms: _484  and  _486
REMARK  193  A    between atoms: _486  and  _487
REMARK  194  A    between atoms: _486  and  _489
REMARK  195  A    between atoms: _489  and  _490
REMARK  196  A    between atoms: _490  and  _491
REMARK  197  A    between atoms: _491  and  _492
REMARK  198  A    between atoms: _501  and  _503
REMARK  199  A    between atoms: _503  and  _504
REMARK  200  A    between atoms: _503  and  _506
REMARK  201  A    between atoms: _506  and  _507
REMARK  202  A    between atoms: _507  and  _508
REMARK  203  A    between atoms: _508  and  _509
REMARK  204  A    between atoms: _518  and  _520
REMARK  205  A    between atoms: _520  and  _521
REMARK  206  A    between atoms: _520  and  _523
REMARK  207  A    between atoms: _523  and  _524
REMARK  208  A    between atoms: _527  and  _529
REMARK  209  A    between atoms: _529  and  _530
REMARK  210  A    between atoms: _529  and  _532
REMARK  211  A    between atoms: _532  and  _533
REMARK  212  A    between atoms: _536  and  _538
REMARK  213  A    between atoms: _538  and  _539
REMARK  214  A    between atoms: _538  and  _541
REMARK  215  A    between atoms: _541  and  _542
REMARK                            x       y       z     vdW  Elec       q    Type
REMARK                         _______ _______ _______ _____ _____    ______ ____
ROOT
ATOM      1  O   HOH     1      15.413   6.982  -0.647  0.00  0.00    +0.000 OA
ENDROOT
TORSDOF 0
REMARK  Name = ../refined-set-2016/3iue/3iue_pocket.pdb
REMARK  215 active torsions:
REMARK  status: ('A' for Active; 'I' for Inactive)
REMARK    1  A    between atoms: _1  and  _3
REMARK    2  A    between atoms: _3  and  _4
REMARK    3  A    between atoms: _3  and  _6
REMARK    4  A    between atoms: _10  and  _11
REMARK    5  A    between atoms: _16  and  _18
REMARK    6  A    between atoms: _18  and  _19
REMARK    7  A    between atoms: _18  and  _21
REMARK    8  A    between atoms: _21  and  _22
REMARK    9  A    between atoms: _25  and  _27
REMARK   10  A    between atoms: _27  and  _28
REMARK   11  A    between atoms: _27  and  _30
REMARK   12  A    between atoms: _30  and  _31
REMARK   13  A    between atoms: _31  and  _32
REMARK   14  A    between atoms: _34  and  _36
REMARK   15  A    between atoms: _36  and  _37
REMARK   16  A    between atoms: _39  and  _41
REMARK   17  A    between atoms: _41  and  _42
REMARK   18  A    between atoms: _45  and  _47
REMARK   19  A    between atoms: _47  and  _48
REMARK   20  A    between atoms: _47  and  _50
REMARK   21  A    between atoms: _50  and  _51
REMARK   22  A    between atoms: _54  and  _56
REMARK   23  A    between atoms: _56  and  _57
REMARK   24  A    between atoms: _56  and  _59
REMARK   25  A    between atoms: _59  and  _60
REMARK   26  A    between atoms: _65  and  _67
REMARK   27  A    between atoms: _67  and  _68
REMARK   28  A    between atoms: _67  and  _70
REMARK   29  A    between atoms: _70  and  _71
REMARK   30  A    between atoms: _71  and  _72
REMARK   31  A    between atoms: _75  and  _77
REMARK   32  A    between atoms: _77  and  _78
REMARK   33  A    between atoms: _80  and  _82
REMARK   34  A    between atoms: _82  and  _83
REMARK   35  A    between atoms: _82  and  _85
REMARK   36  A    between atoms: _85  and  _86
REMARK   37  A    between atoms: _91  and  _93
REMARK   38  A    between atoms: _93  and  _94
REMARK   39  A    between atoms: _93  and  _96
REMARK   40  A    between atoms: _96  and  _97
REMARK   41  A    between atoms: _100  and  _102
REMARK   42  A    between atoms: _102  and  _103
REMARK   43  A    between atoms: _106  and  _108
REMARK   44  A    between atoms: _108  and  _109
REMARK   45  A    between atoms: _108  and  _111
REMARK   46  A    between atoms: _111  and  _112
REMARK   47  A    between atoms: _115  and  _117
REMARK   48  A    between atoms: _117  and  _118
REMARK   49  A    between atoms: _117  and  _120
REMARK   50  A    between atoms: _123  and  _125
REMARK   51  A    between atoms: _125  and  _126
REMARK   52  A    between atoms: _125  and  _128
REMARK   53  A    between atoms: _128  and  _129
REMARK   54  A    between atoms: _131  and  _133
REMARK   55  A    between atoms: _133  and  _134
REMARK   56  A    between atoms: _133  and  _136
REMARK   57  A    between atoms: _136  and  _137
REMARK   58  A    between atoms: _140  and  _142
REMARK   59  A    between atoms: _142  and  _143
REMARK   60  A    between atoms: _142  and  _145
REMARK   61  A    between atoms: _145  and  _146
REMARK   62  A    between atoms: _152  and  _154
REMARK   63  A    between atoms: _154  and  _155
REMARK   64  A    between atoms: _154  and  _157
REMARK   65  A    between atoms: _157  and  _158
REMARK   66  A    between atoms: _163  and  _165
REMARK   67  A    between atoms: _165  and  _166
REMARK   68  A    between atoms: _165  and  _168
REMARK   69  A    between atoms: _168  and  _169
REMARK   70  A    between atoms: _169  and  _170
REMARK   71  A    between atoms: _175  and  _177
REMARK   72  A    between atoms: _177  and  _178
REMARK   73  A    between atoms: _177  and  _180
REMARK   74  A    between atoms: _180  and  _181
REMARK   75  A    between atoms: _187  and  _189
REMARK   76  A    between atoms: _189  and  _190
REMARK   77  A    between atoms: _189  and  _192
REMARK   78  A    between atoms: _192  and  _193
REMARK   79  A    between atoms: _198  and  _199
REMARK   80  A    between atoms: _202  and  _203
REMARK   81  A    between atoms: _208  and  _210
REMARK   82  A    between atoms: _210  and  _211
REMARK   83  A    between atoms: _210  and  _213
REMARK   84  A    between atoms: _213  and  _214
REMARK   85  A    between atoms: _214  and  _215
REMARK   86  A    between atoms: _218  and  _220
REMARK   87  A    between atoms: _220  and  _221
REMARK   88  A    between atoms: _220  and  _223
REMARK   89  A    between atoms: _223  and  _224
REMARK   90  A    between atoms: _229  and  _231
REMARK   91  A    between atoms: _231  and  _232
REMARK   92  A    between atoms: _231  and  _234
REMARK   93  A    between atoms: _234  and  _235
REMARK   94  A    between atoms: _241  and  _243
REMARK   95  A    between atoms: _243  and  _244
REMARK   96  A    between atoms: _243  and  _246
REMARK   97  A    between atoms: _249  and  _251
REMARK   98  A    between atoms: _251  and  _252
REMARK   99  A    between atoms: _251  and  _254
REMARK  100  A    between atoms: _257  and  _259
REMARK  101  A    between atoms: _259  and  _260
REMARK  102  A    between atoms: _259  and  _262
REMARK  103  A    between atoms: _262  and  _263
REMARK  104  A    between atoms: _269  and  _271
REMARK  105  A    between atoms: _271  and  _272
REMARK  106  A    between atoms: _271  and  _274
REMARK  107  A    between atoms: _274  and  _275
REMARK  108  A    between atoms: _281  and  _283
REMARK  109  A    between atoms: _283  and  _284
REMARK  110  A    between atoms: _286  and  _288
REMARK  111  A    between atoms: _288  and  _289
REMARK  112  A    between atoms: _288  and  _291
REMARK  113  A    between atoms: _291  and  _292
REMARK  114  A    between atoms: _292  and  _293
REMARK  115  A    between atoms: _296  and  _298
REMARK  116  A    between atoms: _298  and  _299
REMARK  117  A    between atoms: _298  and  _301
REMARK  118  A    between atoms: _301  and  _302
REMARK  119  A    between atoms: _302  and  _303
REMARK  120  A    between atoms: _303  and  _304
REMARK  121  A    between atoms: _304  and  _305
REMARK  122  A    between atoms: _309  and  _311
REMARK  123  A    between atoms: _311  and  _312
REMARK  124  A    between atoms: _311  and  _314
REMARK  125  A    between atoms: _314  and  _315
REMARK  126  A    between atoms: _318  and  _320
REMARK  127  A    between atoms: _320  and  _321
REMARK  128  A    between atoms: _320  and  _323
REMARK  129  A    between atoms: _323  and  _324
REMARK  130  A    between atoms: _329  and  _330
REMARK  131  A    between atoms: _332  and  _334
REMARK  132  A    between atoms: _334  and  _335
REMARK  133  A    between atoms: _334  and  _337
REMARK  134  A    between atoms: _337  and  _338
REMARK  135  A    between atoms: _338  and  _339
REMARK  136  A    between atoms: _344  and  _346
REMARK  137  A    between atoms: _346  and  _347
REMARK  138  A    between atoms: _346  and  _349
REMARK  139  A    between atoms: _349  and  _350
REMARK  140  A    between atoms: _353  and  _355
REMARK  141  A    between atoms: _355  and  _356
REMARK  142  A    between atoms: _355  and  _358
REMARK  143  A    between atoms: _358  and  _359
REMARK  144  A    between atoms: _362  and  _364
REMARK  145  A    between atoms: _364  and  _365
REMARK  146  A    between atoms: _367  and  _369
REMARK  147  A    between atoms: _369  and  _370
REMARK  148  A    between atoms: _369  and  _372
REMARK  149  A    between atoms: _376  and  _377
REMARK  150  A    between atoms: _382  and  _384
REMARK  151  A    between atoms: _384  and  _385
REMARK  152  A    between atoms: _384  and  _387
REMARK  153  A    between atoms: _387  and  _388
REMARK  154  A    between atoms: _391  and  _393
REMARK  155  A    between atoms: _393  and  _394
REMARK  156  A    between atoms: _393  and  _396
REMARK  157  A    between atoms: _399  and  _401
REMARK  158  A    between atoms: _401  and  _402
REMARK  159  A    between atoms: _401  and  _404
REMARK  160  A    between atoms: _404  and  _405
REMARK  161  A    between atoms: _405  and  _406
REMARK  162  A    between atoms: _406  and  _407
REMARK  163  A    between atoms: _416  and  _418
REMARK  164  A    between atoms: _418  and  _419
REMARK  165  A    between atoms: _418  and  _421
REMARK  166  A    between atoms: _421  and  _422
REMARK  167  A    between atoms: _425  and  _427
REMARK  168  A    between atoms: _427  and  _428
REMARK  169  A    between atoms: _431  and  _433
REMARK  170  A    between atoms: _433  and  _434
REMARK  171  A    between atoms: _433  and  _436
REMARK  172  A    between atoms: _436  and  _437
REMARK  173  A    between atoms: _437  and  _438
REMARK  174  A    between atoms: _440  and  _442
REMARK  175  A    between atoms: _442  and  _443
REMARK  176  A    between atoms: _442  and  _445
REMARK  177  A    between atoms: _445  and  _446
REMARK  178  A    between atoms: _448  and  _450
REMARK  179  A    between atoms: _450  and  _451
REMARK  180  A    between atoms: _450  and  _453
REMARK  181  A    between atoms: _453  and  _454
REMARK  182  A    between atoms: _456  and  _458
REMARK  183  A    between atoms: _458  and  _459
REMARK  184  A    between atoms: _458  and  _461
REMARK  185  A    between atoms: _461  and  _462
REMARK  186  A    between atoms: _462  and  _463
REMARK  187  A    between atoms: _463  and  _464
REMARK  188  A    between atoms: _473  and  _475
REMARK  189  A    between atoms: _475  and  _476
REMARK  190  A    between atoms: _475  and  _478
REMARK  191  A    between atoms: _478  and  _479
REMARK  192  A    between atoms: _484  and  _486
REMARK  193  A    between atoms: _486  and  _487
REMARK  194  A    between atoms: _486  and  _489
REMARK  195  A    between atoms: _489  and  _490
REMARK  196  A    between atoms: _490  and  _491
REMARK  197  A    between atoms: _491  and  _492
REMARK  198  A    between atoms: _501  and  _503
REMARK  199  A    between atoms: _503  and  _504
REMARK  200  A    between atoms: _503  and  _506
REMARK  201  A    between atoms: _506  and  _507
REMARK  202  A    between atoms: _507  and  _508
REMARK  203  A    between atoms: _508  and  _509
REMARK  204  A    between atoms: _518  and  _520
REMARK  205  A    between atoms: _520  and  _521
REMARK  206  A    between atoms: _520  and  _523
REMARK  207  A    between atoms: _523  and  _524
REMARK  208  A    between atoms: _527  and  _529
REMARK  209  A    between atoms: _529  and  _530
REMARK  210  A    between atoms: _529  and  _532
REMARK  211  A    between atoms: _532  and  _533
REMARK  212  A    between atoms: _536  and  _538
REMARK  213  A    between atoms: _538  and  _539
REMARK  214  A    between atoms: _538  and  _541
REMARK  215  A    between atoms: _541  and  _542
REMARK                            x       y       z     vdW  Elec       q    Type
REMARK                         _______ _______ _______ _____ _____    ______ ____
ROOT
ATOM      1  O   HOH     1      16.455   3.712  -7.026  0.00  0.00    +0.000 OA
ENDROOT
TORSDOF 0
REMARK  Name = ../refined-set-2016/3iue/3iue_pocket.pdb
REMARK  215 active torsions:
REMARK  status: ('A' for Active; 'I' for Inactive)
REMARK    1  A    between atoms: _1  and  _3
REMARK    2  A    between atoms: _3  and  _4
REMARK    3  A    between atoms: _3  and  _6
REMARK    4  A    between atoms: _10  and  _11
REMARK    5  A    between atoms: _16  and  _18
REMARK    6  A    between atoms: _18  and  _19
REMARK    7  A    between atoms: _18  and  _21
REMARK    8  A    between atoms: _21  and  _22
REMARK    9  A    between atoms: _25  and  _27
REMARK   10  A    between atoms: _27  and  _28
REMARK   11  A    between atoms: _27  and  _30
REMARK   12  A    between atoms: _30  and  _31
REMARK   13  A    between atoms: _31  and  _32
REMARK   14  A    between atoms: _34  and  _36
REMARK   15  A    between atoms: _36  and  _37
REMARK   16  A    between atoms: _39  and  _41
REMARK   17  A    between atoms: _41  and  _42
REMARK   18  A    between atoms: _45  and  _47
REMARK   19  A    between atoms: _47  and  _48
REMARK   20  A    between atoms: _47  and  _50
REMARK   21  A    between atoms: _50  and  _51
REMARK   22  A    between atoms: _54  and  _56
REMARK   23  A    between atoms: _56  and  _57
REMARK   24  A    between atoms: _56  and  _59
REMARK   25  A    between atoms: _59  and  _60
REMARK   26  A    between atoms: _65  and  _67
REMARK   27  A    between atoms: _67  and  _68
REMARK   28  A    between atoms: _67  and  _70
REMARK   29  A    between atoms: _70  and  _71
REMARK   30  A    between atoms: _71  and  _72
REMARK   31  A    between atoms: _75  and  _77
REMARK   32  A    between atoms: _77  and  _78
REMARK   33  A    between atoms: _80  and  _82
REMARK   34  A    between atoms: _82  and  _83
REMARK   35  A    between atoms: _82  and  _85
REMARK   36  A    between atoms: _85  and  _86
REMARK   37  A    between atoms: _91  and  _93
REMARK   38  A    between atoms: _93  and  _94
REMARK   39  A    between atoms: _93  and  _96
REMARK   40  A    between atoms: _96  and  _97
REMARK   41  A    between atoms: _100  and  _102
REMARK   42  A    between atoms: _102  and  _103
REMARK   43  A    between atoms: _106  and  _108
REMARK   44  A    between atoms: _108  and  _109
REMARK   45  A    between atoms: _108  and  _111
REMARK   46  A    between atoms: _111  and  _112
REMARK   47  A    between atoms: _115  and  _117
REMARK   48  A    between atoms: _117  and  _118
REMARK   49  A    between atoms: _117  and  _120
REMARK   50  A    between atoms: _123  and  _125
REMARK   51  A    between atoms: _125  and  _126
REMARK   52  A    between atoms: _125  and  _128
REMARK   53  A    between atoms: _128  and  _129
REMARK   54  A    between atoms: _131  and  _133
REMARK   55  A    between atoms: _133  and  _134
REMARK   56  A    between atoms: _133  and  _136
REMARK   57  A    between atoms: _136  and  _137
REMARK   58  A    between atoms: _140  and  _142
REMARK   59  A    between atoms: _142  and  _143
REMARK   60  A    between atoms: _142  and  _145
REMARK   61  A    between atoms: _145  and  _146
REMARK   62  A    between atoms: _152  and  _154
REMARK   63  A    between atoms: _154  and  _155
REMARK   64  A    between atoms: _154  and  _157
REMARK   65  A    between atoms: _157  and  _158
REMARK   66  A    between atoms: _163  and  _165
REMARK   67  A    between atoms: _165  and  _166
REMARK   68  A    between atoms: _165  and  _168
REMARK   69  A    between atoms: _168  and  _169
REMARK   70  A    between atoms: _169  and  _170
REMARK   71  A    between atoms: _175  and  _177
REMARK   72  A    between atoms: _177  and  _178
REMARK   73  A    between atoms: _177  and  _180
REMARK   74  A    between atoms: _180  and  _181
REMARK   75  A    between atoms: _187  and  _189
REMARK   76  A    between atoms: _189  and  _190
REMARK   77  A    between atoms: _189  and  _192
REMARK   78  A    between atoms: _192  and  _193
REMARK   79  A    between atoms: _198  and  _199
REMARK   80  A    between atoms: _202  and  _203
REMARK   81  A    between atoms: _208  and  _210
REMARK   82  A    between atoms: _210  and  _211
REMARK   83  A    between atoms: _210  and  _213
REMARK   84  A    between atoms: _213  and  _214
REMARK   85  A    between atoms: _214  and  _215
REMARK   86  A    between atoms: _218  and  _220
REMARK   87  A    between atoms: _220  and  _221
REMARK   88  A    between atoms: _220  and  _223
REMARK   89  A    between atoms: _223  and  _224
REMARK   90  A    between atoms: _229  and  _231
REMARK   91  A    between atoms: _231  and  _232
REMARK   92  A    between atoms: _231  and  _234
REMARK   93  A    between atoms: _234  and  _235
REMARK   94  A    between atoms: _241  and  _243
REMARK   95  A    between atoms: _243  and  _244
REMARK   96  A    between atoms: _243  and  _246
REMARK   97  A    between atoms: _249  and  _251
REMARK   98  A    between atoms: _251  and  _252
REMARK   99  A    between atoms: _251  and  _254
REMARK  100  A    between atoms: _257  and  _259
REMARK  101  A    between atoms: _259  and  _260
REMARK  102  A    between atoms: _259  and  _262
REMARK  103  A    between atoms: _262  and  _263
REMARK  104  A    between atoms: _269  and  _271
REMARK  105  A    between atoms: _271  and  _272
REMARK  106  A    between atoms: _271  and  _274
REMARK  107  A    between atoms: _274  and  _275
REMARK  108  A    between atoms: _281  and  _283
REMARK  109  A    between atoms: _283  and  _284
REMARK  110  A    between atoms: _286  and  _288
REMARK  111  A    between atoms: _288  and  _289
REMARK  112  A    between atoms: _288  and  _291
REMARK  113  A    between atoms: _291  and  _292
REMARK  114  A    between atoms: _292  and  _293
REMARK  115  A    between atoms: _296  and  _298
REMARK  116  A    between atoms: _298  and  _299
REMARK  117  A    between atoms: _298  and  _301
REMARK  118  A    between atoms: _301  and  _302
REMARK  119  A    between atoms: _302  and  _303
REMARK  120  A    between atoms: _303  and  _304
REMARK  121  A    between atoms: _304  and  _305
REMARK  122  A    between atoms: _309  and  _311
REMARK  123  A    between atoms: _311  and  _312
REMARK  124  A    between atoms: _311  and  _314
REMARK  125  A    between atoms: _314  and  _315
REMARK  126  A    between atoms: _318  and  _320
REMARK  127  A    between atoms: _320  and  _321
REMARK  128  A    between atoms: _320  and  _323
REMARK  129  A    between atoms: _323  and  _324
REMARK  130  A    between atoms: _329  and  _330
REMARK  131  A    between atoms: _332  and  _334
REMARK  132  A    between atoms: _334  and  _335
REMARK  133  A    between atoms: _334  and  _337
REMARK  134  A    between atoms: _337  and  _338
REMARK  135  A    between atoms: _338  and  _339
REMARK  136  A    between atoms: _344  and  _346
REMARK  137  A    between atoms: _346  and  _347
REMARK  138  A    between atoms: _346  and  _349
REMARK  139  A    between atoms: _349  and  _350
REMARK  140  A    between atoms: _353  and  _355
REMARK  141  A    between atoms: _355  and  _356
REMARK  142  A    between atoms: _355  and  _358
REMARK  143  A    between atoms: _358  and  _359
REMARK  144  A    between atoms: _362  and  _364
REMARK  145  A    between atoms: _364  and  _365
REMARK  146  A    between atoms: _367  and  _369
REMARK  147  A    between atoms: _369  and  _370
REMARK  148  A    between atoms: _369  and  _372
REMARK  149  A    between atoms: _376  and  _377
REMARK  150  A    between atoms: _382  and  _384
REMARK  151  A    between atoms: _384  and  _385
REMARK  152  A    between atoms: _384  and  _387
REMARK  153  A    between atoms: _387  and  _388
REMARK  154  A    between atoms: _391  and  _393
REMARK  155  A    between atoms: _393  and  _394
REMARK  156  A    between atoms: _393  and  _396
REMARK  157  A    between atoms: _399  and  _401
REMARK  158  A    between atoms: _401  and  _402
REMARK  159  A    between atoms: _401  and  _404
REMARK  160  A    between atoms: _404  and  _405
REMARK  161  A    between atoms: _405  and  _406
REMARK  162  A    between atoms: _406  and  _407
REMARK  163  A    between atoms: _416  and  _418
REMARK  164  A    between atoms: _418  and  _419
REMARK  165  A    between atoms: _418  and  _421
REMARK  166  A    between atoms: _421  and  _422
REMARK  167  A    between atoms: _425  and  _427
REMARK  168  A    between atoms: _427  and  _428
REMARK  169  A    between atoms: _431  and  _433
REMARK  170  A    between atoms: _433  and  _434
REMARK  171  A    between atoms: _433  and  _436
REMARK  172  A    between atoms: _436  and  _437
REMARK  173  A    between atoms: _437  and  _438
REMARK  174  A    between atoms: _440  and  _442
REMARK  175  A    between atoms: _442  and  _443
REMARK  176  A    between atoms: _442  and  _445
REMARK  177  A    between atoms: _445  and  _446
REMARK  178  A    between atoms: _448  and  _450
REMARK  179  A    between atoms: _450  and  _451
REMARK  180  A    between atoms: _450  and  _453
REMARK  181  A    between atoms: _453  and  _454
REMARK  182  A    between atoms: _456  and  _458
REMARK  183  A    between atoms: _458  and  _459
REMARK  184  A    between atoms: _458  and  _461
REMARK  185  A    between atoms: _461  and  _462
REMARK  186  A    between atoms: _462  and  _463
REMARK  187  A    between atoms: _463  and  _464
REMARK  188  A    between atoms: _473  and  _475
REMARK  189  A    between atoms: _475  and  _476
REMARK  190  A    between atoms: _475  and  _478
REMARK  191  A    between atoms: _478  and  _479
REMARK  192  A    between atoms: _484  and  _486
REMARK  193  A    between atoms: _486  and  _487
REMARK  194  A    between atoms: _486  and  _489
REMARK  195  A    between atoms: _489  and  _490
REMARK  196  A    between atoms: _490  and  _491
REMARK  197  A    between atoms: _491  and  _492
REMARK  198  A    between atoms: _501  and  _503
REMARK  199  A    between atoms: _503  and  _504
REMARK  200  A    between atoms: _503  and  _506
REMARK  201  A    between atoms: _506  and  _507
REMARK  202  A    between atoms: _507  and  _508
REMARK  203  A    between atoms: _508  and  _509
REMARK  204  A    between atoms: _518  and  _520
REMARK  205  A    between atoms: _520  and  _521
REMARK  206  A    between atoms: _520  and  _523
REMARK  207  A    between atoms: _523  and  _524
REMARK  208  A    between atoms: _527  and  _529
REMARK  209  A    between atoms: _529  and  _530
REMARK  210  A    between atoms: _529  and  _532
REMARK  211  A    between atoms: _532  and  _533
REMARK  212  A    between atoms: _536  and  _538
REMARK  213  A    between atoms: _538  and  _539
REMARK  214  A    between atoms: _538  and  _541
REMARK  215  A    between atoms: _541  and  _542
REMARK                            x       y       z     vdW  Elec       q    Type
REMARK                         _______ _______ _______ _____ _____    ______ ____
ROOT
ATOM      1  O   HOH     1      21.396  12.106   1.802  0.00  0.00    +0.000 OA
ENDROOT
TORSDOF 0
REMARK  Name = ../refined-set-2016/3iue/3iue_pocket.pdb
REMARK  215 active torsions:
REMARK  status: ('A' for Active; 'I' for Inactive)
REMARK    1  A    between atoms: _1  and  _3
REMARK    2  A    between atoms: _3  and  _4
REMARK    3  A    between atoms: _3  and  _6
REMARK    4  A    between atoms: _10  and  _11
REMARK    5  A    between atoms: _16  and  _18
REMARK    6  A    between atoms: _18  and  _19
REMARK    7  A    between atoms: _18  and  _21
REMARK    8  A    between atoms: _21  and  _22
REMARK    9  A    between atoms: _25  and  _27
REMARK   10  A    between atoms: _27  and  _28
REMARK   11  A    between atoms: _27  and  _30
REMARK   12  A    between atoms: _30  and  _31
REMARK   13  A    between atoms: _31  and  _32
REMARK   14  A    between atoms: _34  and  _36
REMARK   15  A    between atoms: _36  and  _37
REMARK   16  A    between atoms: _39  and  _41
REMARK   17  A    between atoms: _41  and  _42
REMARK   18  A    between atoms: _45  and  _47
REMARK   19  A    between atoms: _47  and  _48
REMARK   20  A    between atoms: _47  and  _50
REMARK   21  A    between atoms: _50  and  _51
REMARK   22  A    between atoms: _54  and  _56
REMARK   23  A    between atoms: _56  and  _57
REMARK   24  A    between atoms: _56  and  _59
REMARK   25  A    between atoms: _59  and  _60
REMARK   26  A    between atoms: _65  and  _67
REMARK   27  A    between atoms: _67  and  _68
REMARK   28  A    between atoms: _67  and  _70
REMARK   29  A    between atoms: _70  and  _71
REMARK   30  A    between atoms: _71  and  _72
REMARK   31  A    between atoms: _75  and  _77
REMARK   32  A    between atoms: _77  and  _78
REMARK   33  A    between atoms: _80  and  _82
REMARK   34  A    between atoms: _82  and  _83
REMARK   35  A    between atoms: _82  and  _85
REMARK   36  A    between atoms: _85  and  _86
REMARK   37  A    between atoms: _91  and  _93
REMARK   38  A    between atoms: _93  and  _94
REMARK   39  A    between atoms: _93  and  _96
REMARK   40  A    between atoms: _96  and  _97
REMARK   41  A    between atoms: _100  and  _102
REMARK   42  A    between atoms: _102  and  _103
REMARK   43  A    between atoms: _106  and  _108
REMARK   44  A    between atoms: _108  and  _109
REMARK   45  A    between atoms: _108  and  _111
REMARK   46  A    between atoms: _111  and  _112
REMARK   47  A    between atoms: _115  and  _117
REMARK   48  A    between atoms: _117  and  _118
REMARK   49  A    between atoms: _117  and  _120
REMARK   50  A    between atoms: _123  and  _125
REMARK   51  A    between atoms: _125  and  _126
REMARK   52  A    between atoms: _125  and  _128
REMARK   53  A    between atoms: _128  and  _129
REMARK   54  A    between atoms: _131  and  _133
REMARK   55  A    between atoms: _133  and  _134
REMARK   56  A    between atoms: _133  and  _136
REMARK   57  A    between atoms: _136  and  _137
REMARK   58  A    between atoms: _140  and  _142
REMARK   59  A    between atoms: _142  and  _143
REMARK   60  A    between atoms: _142  and  _145
REMARK   61  A    between atoms: _145  and  _146
REMARK   62  A    between atoms: _152  and  _154
REMARK   63  A    between atoms: _154  and  _155
REMARK   64  A    between atoms: _154  and  _157
REMARK   65  A    between atoms: _157  and  _158
REMARK   66  A    between atoms: _163  and  _165
REMARK   67  A    between atoms: _165  and  _166
REMARK   68  A    between atoms: _165  and  _168
REMARK   69  A    between atoms: _168  and  _169
REMARK   70  A    between atoms: _169  and  _170
REMARK   71  A    between atoms: _175  and  _177
REMARK   72  A    between atoms: _177  and  _178
REMARK   73  A    between atoms: _177  and  _180
REMARK   74  A    between atoms: _180  and  _181
REMARK   75  A    between atoms: _187  and  _189
REMARK   76  A    between atoms: _189  and  _190
REMARK   77  A    between atoms: _189  and  _192
REMARK   78  A    between atoms: _192  and  _193
REMARK   79  A    between atoms: _198  and  _199
REMARK   80  A    between atoms: _202  and  _203
REMARK   81  A    between atoms: _208  and  _210
REMARK   82  A    between atoms: _210  and  _211
REMARK   83  A    between atoms: _210  and  _213
REMARK   84  A    between atoms: _213  and  _214
REMARK   85  A    between atoms: _214  and  _215
REMARK   86  A    between atoms: _218  and  _220
REMARK   87  A    between atoms: _220  and  _221
REMARK   88  A    between atoms: _220  and  _223
REMARK   89  A    between atoms: _223  and  _224
REMARK   90  A    between atoms: _229  and  _231
REMARK   91  A    between atoms: _231  and  _232
REMARK   92  A    between atoms: _231  and  _234
REMARK   93  A    between atoms: _234  and  _235
REMARK   94  A    between atoms: _241  and  _243
REMARK   95  A    between atoms: _243  and  _244
REMARK   96  A    between atoms: _243  and  _246
REMARK   97  A    between atoms: _249  and  _251
REMARK   98  A    between atoms: _251  and  _252
REMARK   99  A    between atoms: _251  and  _254
REMARK  100  A    between atoms: _257  and  _259
REMARK  101  A    between atoms: _259  and  _260
REMARK  102  A    between atoms: _259  and  _262
REMARK  103  A    between atoms: _262  and  _263
REMARK  104  A    between atoms: _269  and  _271
REMARK  105  A    between atoms: _271  and  _272
REMARK  106  A    between atoms: _271  and  _274
REMARK  107  A    between atoms: _274  and  _275
REMARK  108  A    between atoms: _281  and  _283
REMARK  109  A    between atoms: _283  and  _284
REMARK  110  A    between atoms: _286  and  _288
REMARK  111  A    between atoms: _288  and  _289
REMARK  112  A    between atoms: _288  and  _291
REMARK  113  A    between atoms: _291  and  _292
REMARK  114  A    between atoms: _292  and  _293
REMARK  115  A    between atoms: _296  and  _298
REMARK  116  A    between atoms: _298  and  _299
REMARK  117  A    between atoms: _298  and  _301
REMARK  118  A    between atoms: _301  and  _302
REMARK  119  A    between atoms: _302  and  _303
REMARK  120  A    between atoms: _303  and  _304
REMARK  121  A    between atoms: _304  and  _305
REMARK  122  A    between atoms: _309  and  _311
REMARK  123  A    between atoms: _311  and  _312
REMARK  124  A    between atoms: _311  and  _314
REMARK  125  A    between atoms: _314  and  _315
REMARK  126  A    between atoms: _318  and  _320
REMARK  127  A    between atoms: _320  and  _321
REMARK  128  A    between atoms: _320  and  _323
REMARK  129  A    between atoms: _323  and  _324
REMARK  130  A    between atoms: _329  and  _330
REMARK  131  A    between atoms: _332  and  _334
REMARK  132  A    between atoms: _334  and  _335
REMARK  133  A    between atoms: _334  and  _337
REMARK  134  A    between atoms: _337  and  _338
REMARK  135  A    between atoms: _338  and  _339
REMARK  136  A    between atoms: _344  and  _346
REMARK  137  A    between atoms: _346  and  _347
REMARK  138  A    between atoms: _346  and  _349
REMARK  139  A    between atoms: _349  and  _350
REMARK  140  A    between atoms: _353  and  _355
REMARK  141  A    between atoms: _355  and  _356
REMARK  142  A    between atoms: _355  and  _358
REMARK  143  A    between atoms: _358  and  _359
REMARK  144  A    between atoms: _362  and  _364
REMARK  145  A    between atoms: _364  and  _365
REMARK  146  A    between atoms: _367  and  _369
REMARK  147  A    between atoms: _369  and  _370
REMARK  148  A    between atoms: _369  and  _372
REMARK  149  A    between atoms: _376  and  _377
REMARK  150  A    between atoms: _382  and  _384
REMARK  151  A    between atoms: _384  and  _385
REMARK  152  A    between atoms: _384  and  _387
REMARK  153  A    between atoms: _387  and  _388
REMARK  154  A    between atoms: _391  and  _393
REMARK  155  A    between atoms: _393  and  _394
REMARK  156  A    between atoms: _393  and  _396
REMARK  157  A    between atoms: _399  and  _401
REMARK  158  A    between atoms: _401  and  _402
REMARK  159  A    between atoms: _401  and  _404
REMARK  160  A    between atoms: _404  and  _405
REMARK  161  A    between atoms: _405  and  _406
REMARK  162  A    between atoms: _406  and  _407
REMARK  163  A    between atoms: _416  and  _418
REMARK  164  A    between atoms: _418  and  _419
REMARK  165  A    between atoms: _418  and  _421
REMARK  166  A    between atoms: _421  and  _422
REMARK  167  A    between atoms: _425  and  _427
REMARK  168  A    between atoms: _427  and  _428
REMARK  169  A    between atoms: _431  and  _433
REMARK  170  A    between atoms: _433  and  _434
REMARK  171  A    between atoms: _433  and  _436
REMARK  172  A    between atoms: _436  and  _437
REMARK  173  A    between atoms: _437  and  _438
REMARK  174  A    between atoms: _440  and  _442
REMARK  175  A    between atoms: _442  and  _443
REMARK  176  A    between atoms: _442  and  _445
REMARK  177  A    between atoms: _445  and  _446
REMARK  178  A    between atoms: _448  and  _450
REMARK  179  A    between atoms: _450  and  _451
REMARK  180  A    between atoms: _450  and  _453
REMARK  181  A    between atoms: _453  and  _454
REMARK  182  A    between atoms: _456  and  _458
REMARK  183  A    between atoms: _458  and  _459
REMARK  184  A    between atoms: _458  and  _461
REMARK  185  A    between atoms: _461  and  _462
REMARK  186  A    between atoms: _462  and  _463
REMARK  187  A    between atoms: _463  and  _464
REMARK  188  A    between atoms: _473  and  _475
REMARK  189  A    between atoms: _475  and  _476
REMARK  190  A    between atoms: _475  and  _478
REMARK  191  A    between atoms: _478  and  _479
REMARK  192  A    between atoms: _484  and  _486
REMARK  193  A    between atoms: _486  and  _487
REMARK  194  A    between atoms: _486  and  _489
REMARK  195  A    between atoms: _489  and  _490
REMARK  196  A    between atoms: _490  and  _491
REMARK  197  A    between atoms: _491  and  _492
REMARK  198  A    between atoms: _501  and  _503
REMARK  199  A    between atoms: _503  and  _504
REMARK  200  A    between atoms: _503  and  _506
REMARK  201  A    between atoms: _506  and  _507
REMARK  202  A    between atoms: _507  and  _508
REMARK  203  A    between atoms: _508  and  _509
REMARK  204  A    between atoms: _518  and  _520
REMARK  205  A    between atoms: _520  and  _521
REMARK  206  A    between atoms: _520  and  _523
REMARK  207  A    between atoms: _523  and  _524
REMARK  208  A    between atoms: _527  and  _529
REMARK  209  A    between atoms: _529  and  _530
REMARK  210  A    between atoms: _529  and  _532
REMARK  211  A    between atoms: _532  and  _533
REMARK  212  A    between atoms: _536  and  _538
REMARK  213  A    between atoms: _538  and  _539
REMARK  214  A    between atoms: _538  and  _541
REMARK  215  A    between atoms: _541  and  _542
REMARK                            x       y       z     vdW  Elec       q    Type
REMARK                         _______ _______ _______ _____ _____    ______ ____
ROOT
ATOM      1  O   HOH     1      21.810   9.496   2.335  0.00  0.00    +0.000 OA
ENDROOT
TORSDOF 0
REMARK  Name = ../refined-set-2016/3iue/3iue_pocket.pdb
REMARK  215 active torsions:
REMARK  status: ('A' for Active; 'I' for Inactive)
REMARK    1  A    between atoms: _1  and  _3
REMARK    2  A    between atoms: _3  and  _4
REMARK    3  A    between atoms: _3  and  _6
REMARK    4  A    between atoms: _10  and  _11
REMARK    5  A    between atoms: _16  and  _18
REMARK    6  A    between atoms: _18  and  _19
REMARK    7  A    between atoms: _18  and  _21
REMARK    8  A    between atoms: _21  and  _22
REMARK    9  A    between atoms: _25  and  _27
REMARK   10  A    between atoms: _27  and  _28
REMARK   11  A    between atoms: _27  and  _30
REMARK   12  A    between atoms: _30  and  _31
REMARK   13  A    between atoms: _31  and  _32
REMARK   14  A    between atoms: _34  and  _36
REMARK   15  A    between atoms: _36  and  _37
REMARK   16  A    between atoms: _39  and  _41
REMARK   17  A    between atoms: _41  and  _42
REMARK   18  A    between atoms: _45  and  _47
REMARK   19  A    between atoms: _47  and  _48
REMARK   20  A    between atoms: _47  and  _50
REMARK   21  A    between atoms: _50  and  _51
REMARK   22  A    between atoms: _54  and  _56
REMARK   23  A    between atoms: _56  and  _57
REMARK   24  A    between atoms: _56  and  _59
REMARK   25  A    between atoms: _59  and  _60
REMARK   26  A    between atoms: _65  and  _67
REMARK   27  A    between atoms: _67  and  _68
REMARK   28  A    between atoms: _67  and  _70
REMARK   29  A    between atoms: _70  and  _71
REMARK   30  A    between atoms: _71  and  _72
REMARK   31  A    between atoms: _75  and  _77
REMARK   32  A    between atoms: _77  and  _78
REMARK   33  A    between atoms: _80  and  _82
REMARK   34  A    between atoms: _82  and  _83
REMARK   35  A    between atoms: _82  and  _85
REMARK   36  A    between atoms: _85  and  _86
REMARK   37  A    between atoms: _91  and  _93
REMARK   38  A    between atoms: _93  and  _94
REMARK   39  A    between atoms: _93  and  _96
REMARK   40  A    between atoms: _96  and  _97
REMARK   41  A    between atoms: _100  and  _102
REMARK   42  A    between atoms: _102  and  _103
REMARK   43  A    between atoms: _106  and  _108
REMARK   44  A    between atoms: _108  and  _109
REMARK   45  A    between atoms: _108  and  _111
REMARK   46  A    between atoms: _111  and  _112
REMARK   47  A    between atoms: _115  and  _117
REMARK   48  A    between atoms: _117  and  _118
REMARK   49  A    between atoms: _117  and  _120
REMARK   50  A    between atoms: _123  and  _125
REMARK   51  A    between atoms: _125  and  _126
REMARK   52  A    between atoms: _125  and  _128
REMARK   53  A    between atoms: _128  and  _129
REMARK   54  A    between atoms: _131  and  _133
REMARK   55  A    between atoms: _133  and  _134
REMARK   56  A    between atoms: _133  and  _136
REMARK   57  A    between atoms: _136  and  _137
REMARK   58  A    between atoms: _140  and  _142
REMARK   59  A    between atoms: _142  and  _143
REMARK   60  A    between atoms: _142  and  _145
REMARK   61  A    between atoms: _145  and  _146
REMARK   62  A    between atoms: _152  and  _154
REMARK   63  A    between atoms: _154  and  _155
REMARK   64  A    between atoms: _154  and  _157
REMARK   65  A    between atoms: _157  and  _158
REMARK   66  A    between atoms: _163  and  _165
REMARK   67  A    between atoms: _165  and  _166
REMARK   68  A    between atoms: _165  and  _168
REMARK   69  A    between atoms: _168  and  _169
REMARK   70  A    between atoms: _169  and  _170
REMARK   71  A    between atoms: _175  and  _177
REMARK   72  A    between atoms: _177  and  _178
REMARK   73  A    between atoms: _177  and  _180
REMARK   74  A    between atoms: _180  and  _181
REMARK   75  A    between atoms: _187  and  _189
REMARK   76  A    between atoms: _189  and  _190
REMARK   77  A    between atoms: _189  and  _192
REMARK   78  A    between atoms: _192  and  _193
REMARK   79  A    between atoms: _198  and  _199
REMARK   80  A    between atoms: _202  and  _203
REMARK   81  A    between atoms: _208  and  _210
REMARK   82  A    between atoms: _210  and  _211
REMARK   83  A    between atoms: _210  and  _213
REMARK   84  A    between atoms: _213  and  _214
REMARK   85  A    between atoms: _214  and  _215
REMARK   86  A    between atoms: _218  and  _220
REMARK   87  A    between atoms: _220  and  _221
REMARK   88  A    between atoms: _220  and  _223
REMARK   89  A    between atoms: _223  and  _224
REMARK   90  A    between atoms: _229  and  _231
REMARK   91  A    between atoms: _231  and  _232
REMARK   92  A    between atoms: _231  and  _234
REMARK   93  A    between atoms: _234  and  _235
REMARK   94  A    between atoms: _241  and  _243
REMARK   95  A    between atoms: _243  and  _244
REMARK   96  A    between atoms: _243  and  _246
REMARK   97  A    between atoms: _249  and  _251
REMARK   98  A    between atoms: _251  and  _252
REMARK   99  A    between atoms: _251  and  _254
REMARK  100  A    between atoms: _257  and  _259
REMARK  101  A    between atoms: _259  and  _260
REMARK  102  A    between atoms: _259  and  _262
REMARK  103  A    between atoms: _262  and  _263
REMARK  104  A    between atoms: _269  and  _271
REMARK  105  A    between atoms: _271  and  _272
REMARK  106  A    between atoms: _271  and  _274
REMARK  107  A    between atoms: _274  and  _275
REMARK  108  A    between atoms: _281  and  _283
REMARK  109  A    between atoms: _283  and  _284
REMARK  110  A    between atoms: _286  and  _288
REMARK  111  A    between atoms: _288  and  _289
REMARK  112  A    between atoms: _288  and  _291
REMARK  113  A    between atoms: _291  and  _292
REMARK  114  A    between atoms: _292  and  _293
REMARK  115  A    between atoms: _296  and  _298
REMARK  116  A    between atoms: _298  and  _299
REMARK  117  A    between atoms: _298  and  _301
REMARK  118  A    between atoms: _301  and  _302
REMARK  119  A    between atoms: _302  and  _303
REMARK  120  A    between atoms: _303  and  _304
REMARK  121  A    between atoms: _304  and  _305
REMARK  122  A    between atoms: _309  and  _311
REMARK  123  A    between atoms: _311  and  _312
REMARK  124  A    between atoms: _311  and  _314
REMARK  125  A    between atoms: _314  and  _315
REMARK  126  A    between atoms: _318  and  _320
REMARK  127  A    between atoms: _320  and  _321
REMARK  128  A    between atoms: _320  and  _323
REMARK  129  A    between atoms: _323  and  _324
REMARK  130  A    between atoms: _329  and  _330
REMARK  131  A    between atoms: _332  and  _334
REMARK  132  A    between atoms: _334  and  _335
REMARK  133  A    between atoms: _334  and  _337
REMARK  134  A    between atoms: _337  and  _338
REMARK  135  A    between atoms: _338  and  _339
REMARK  136  A    between atoms: _344  and  _346
REMARK  137  A    between atoms: _346  and  _347
REMARK  138  A    between atoms: _346  and  _349
REMARK  139  A    between atoms: _349  and  _350
REMARK  140  A    between atoms: _353  and  _355
REMARK  141  A    between atoms: _355  and  _356
REMARK  142  A    between atoms: _355  and  _358
REMARK  143  A    between atoms: _358  and  _359
REMARK  144  A    between atoms: _362  and  _364
REMARK  145  A    between atoms: _364  and  _365
REMARK  146  A    between atoms: _367  and  _369
REMARK  147  A    between atoms: _369  and  _370
REMARK  148  A    between atoms: _369  and  _372
REMARK  149  A    between atoms: _376  and  _377
REMARK  150  A    between atoms: _382  and  _384
REMARK  151  A    between atoms: _384  and  _385
REMARK  152  A    between atoms: _384  and  _387
REMARK  153  A    between atoms: _387  and  _388
REMARK  154  A    between atoms: _391  and  _393
REMARK  155  A    between atoms: _393  and  _394
REMARK  156  A    between atoms: _393  and  _396
REMARK  157  A    between atoms: _399  and  _401
REMARK  158  A    between atoms: _401  and  _402
REMARK  159  A    between atoms: _401  and  _404
REMARK  160  A    between atoms: _404  and  _405
REMARK  161  A    between atoms: _405  and  _406
REMARK  162  A    between atoms: _406  and  _407
REMARK  163  A    between atoms: _416  and  _418
REMARK  164  A    between atoms: _418  and  _419
REMARK  165  A    between atoms: _418  and  _421
REMARK  166  A    between atoms: _421  and  _422
REMARK  167  A    between atoms: _425  and  _427
REMARK  168  A    between atoms: _427  and  _428
REMARK  169  A    between atoms: _431  and  _433
REMARK  170  A    between atoms: _433  and  _434
REMARK  171  A    between atoms: _433  and  _436
REMARK  172  A    between atoms: _436  and  _437
REMARK  173  A    between atoms: _437  and  _438
REMARK  174  A    between atoms: _440  and  _442
REMARK  175  A    between atoms: _442  and  _443
REMARK  176  A    between atoms: _442  and  _445
REMARK  177  A    between atoms: _445  and  _446
REMARK  178  A    between atoms: _448  and  _450
REMARK  179  A    between atoms: _450  and  _451
REMARK  180  A    between atoms: _450  and  _453
REMARK  181  A    between atoms: _453  and  _454
REMARK  182  A    between atoms: _456  and  _458
REMARK  183  A    between atoms: _458  and  _459
REMARK  184  A    between atoms: _458  and  _461
REMARK  185  A    between atoms: _461  and  _462
REMARK  186  A    between atoms: _462  and  _463
REMARK  187  A    between atoms: _463  and  _464
REMARK  188  A    between atoms: _473  and  _475
REMARK  189  A    between atoms: _475  and  _476
REMARK  190  A    between atoms: _475  and  _478
REMARK  191  A    between atoms: _478  and  _479
REMARK  192  A    between atoms: _484  and  _486
REMARK  193  A    between atoms: _486  and  _487
REMARK  194  A    between atoms: _486  and  _489
REMARK  195  A    between atoms: _489  and  _490
REMARK  196  A    between atoms: _490  and  _491
REMARK  197  A    between atoms: _491  and  _492
REMARK  198  A    between atoms: _501  and  _503
REMARK  199  A    between atoms: _503  and  _504
REMARK  200  A    between atoms: _503  and  _506
REMARK  201  A    between atoms: _506  and  _507
REMARK  202  A    between atoms: _507  and  _508
REMARK  203  A    between atoms: _508  and  _509
REMARK  204  A    between atoms: _518  and  _520
REMARK  205  A    between atoms: _520  and  _521
REMARK  206  A    between atoms: _520  and  _523
REMARK  207  A    between atoms: _523  and  _524
REMARK  208  A    between atoms: _527  and  _529
REMARK  209  A    between atoms: _529  and  _530
REMARK  210  A    between atoms: _529  and  _532
REMARK  211  A    between atoms: _532  and  _533
REMARK  212  A    between atoms: _536  and  _538
REMARK  213  A    between atoms: _538  and  _539
REMARK  214  A    between atoms: _538  and  _541
REMARK  215  A    between atoms: _541  and  _542
REMARK                            x       y       z     vdW  Elec       q    Type
REMARK                         _______ _______ _______ _____ _____    ______ ____
ROOT
ATOM      1  O   HOH     1      17.494  14.324   4.072  0.00  0.00    +0.000 OA
ENDROOT
TORSDOF 0
REMARK  Name = ../refined-set-2016/3iue/3iue_pocket.pdb
REMARK  215 active torsions:
REMARK  status: ('A' for Active; 'I' for Inactive)
REMARK    1  A    between atoms: _1  and  _3
REMARK    2  A    between atoms: _3  and  _4
REMARK    3  A    between atoms: _3  and  _6
REMARK    4  A    between atoms: _10  and  _11
REMARK    5  A    between atoms: _16  and  _18
REMARK    6  A    between atoms: _18  and  _19
REMARK    7  A    between atoms: _18  and  _21
REMARK    8  A    between atoms: _21  and  _22
REMARK    9  A    between atoms: _25  and  _27
REMARK   10  A    between atoms: _27  and  _28
REMARK   11  A    between atoms: _27  and  _30
REMARK   12  A    between atoms: _30  and  _31
REMARK   13  A    between atoms: _31  and  _32
REMARK   14  A    between atoms: _34  and  _36
REMARK   15  A    between atoms: _36  and  _37
REMARK   16  A    between atoms: _39  and  _41
REMARK   17  A    between atoms: _41  and  _42
REMARK   18  A    between atoms: _45  and  _47
REMARK   19  A    between atoms: _47  and  _48
REMARK   20  A    between atoms: _47  and  _50
REMARK   21  A    between atoms: _50  and  _51
REMARK   22  A    between atoms: _54  and  _56
REMARK   23  A    between atoms: _56  and  _57
REMARK   24  A    between atoms: _56  and  _59
REMARK   25  A    between atoms: _59  and  _60
REMARK   26  A    between atoms: _65  and  _67
REMARK   27  A    between atoms: _67  and  _68
REMARK   28  A    between atoms: _67  and  _70
REMARK   29  A    between atoms: _70  and  _71
REMARK   30  A    between atoms: _71  and  _72
REMARK   31  A    between atoms: _75  and  _77
REMARK   32  A    between atoms: _77  and  _78
REMARK   33  A    between atoms: _80  and  _82
REMARK   34  A    between atoms: _82  and  _83
REMARK   35  A    between atoms: _82  and  _85
REMARK   36  A    between atoms: _85  and  _86
REMARK   37  A    between atoms: _91  and  _93
REMARK   38  A    between atoms: _93  and  _94
REMARK   39  A    between atoms: _93  and  _96
REMARK   40  A    between atoms: _96  and  _97
REMARK   41  A    between atoms: _100  and  _102
REMARK   42  A    between atoms: _102  and  _103
REMARK   43  A    between atoms: _106  and  _108
REMARK   44  A    between atoms: _108  and  _109
REMARK   45  A    between atoms: _108  and  _111
REMARK   46  A    between atoms: _111  and  _112
REMARK   47  A    between atoms: _115  and  _117
REMARK   48  A    between atoms: _117  and  _118
REMARK   49  A    between atoms: _117  and  _120
REMARK   50  A    between atoms: _123  and  _125
REMARK   51  A    between atoms: _125  and  _126
REMARK   52  A    between atoms: _125  and  _128
REMARK   53  A    between atoms: _128  and  _129
REMARK   54  A    between atoms: _131  and  _133
REMARK   55  A    between atoms: _133  and  _134
REMARK   56  A    between atoms: _133  and  _136
REMARK   57  A    between atoms: _136  and  _137
REMARK   58  A    between atoms: _140  and  _142
REMARK   59  A    between atoms: _142  and  _143
REMARK   60  A    between atoms: _142  and  _145
REMARK   61  A    between atoms: _145  and  _146
REMARK   62  A    between atoms: _152  and  _154
REMARK   63  A    between atoms: _154  and  _155
REMARK   64  A    between atoms: _154  and  _157
REMARK   65  A    between atoms: _157  and  _158
REMARK   66  A    between atoms: _163  and  _165
REMARK   67  A    between atoms: _165  and  _166
REMARK   68  A    between atoms: _165  and  _168
REMARK   69  A    between atoms: _168  and  _169
REMARK   70  A    between atoms: _169  and  _170
REMARK   71  A    between atoms: _175  and  _177
REMARK   72  A    between atoms: _177  and  _178
REMARK   73  A    between atoms: _177  and  _180
REMARK   74  A    between atoms: _180  and  _181
REMARK   75  A    between atoms: _187  and  _189
REMARK   76  A    between atoms: _189  and  _190
REMARK   77  A    between atoms: _189  and  _192
REMARK   78  A    between atoms: _192  and  _193
REMARK   79  A    between atoms: _198  and  _199
REMARK   80  A    between atoms: _202  and  _203
REMARK   81  A    between atoms: _208  and  _210
REMARK   82  A    between atoms: _210  and  _211
REMARK   83  A    between atoms: _210  and  _213
REMARK   84  A    between atoms: _213  and  _214
REMARK   85  A    between atoms: _214  and  _215
REMARK   86  A    between atoms: _218  and  _220
REMARK   87  A    between atoms: _220  and  _221
REMARK   88  A    between atoms: _220  and  _223
REMARK   89  A    between atoms: _223  and  _224
REMARK   90  A    between atoms: _229  and  _231
REMARK   91  A    between atoms: _231  and  _232
REMARK   92  A    between atoms: _231  and  _234
REMARK   93  A    between atoms: _234  and  _235
REMARK   94  A    between atoms: _241  and  _243
REMARK   95  A    between atoms: _243  and  _244
REMARK   96  A    between atoms: _243  and  _246
REMARK   97  A    between atoms: _249  and  _251
REMARK   98  A    between atoms: _251  and  _252
REMARK   99  A    between atoms: _251  and  _254
REMARK  100  A    between atoms: _257  and  _259
REMARK  101  A    between atoms: _259  and  _260
REMARK  102  A    between atoms: _259  and  _262
REMARK  103  A    between atoms: _262  and  _263
REMARK  104  A    between atoms: _269  and  _271
REMARK  105  A    between atoms: _271  and  _272
REMARK  106  A    between atoms: _271  and  _274
REMARK  107  A    between atoms: _274  and  _275
REMARK  108  A    between atoms: _281  and  _283
REMARK  109  A    between atoms: _283  and  _284
REMARK  110  A    between atoms: _286  and  _288
REMARK  111  A    between atoms: _288  and  _289
REMARK  112  A    between atoms: _288  and  _291
REMARK  113  A    between atoms: _291  and  _292
REMARK  114  A    between atoms: _292  and  _293
REMARK  115  A    between atoms: _296  and  _298
REMARK  116  A    between atoms: _298  and  _299
REMARK  117  A    between atoms: _298  and  _301
REMARK  118  A    between atoms: _301  and  _302
REMARK  119  A    between atoms: _302  and  _303
REMARK  120  A    between atoms: _303  and  _304
REMARK  121  A    between atoms: _304  and  _305
REMARK  122  A    between atoms: _309  and  _311
REMARK  123  A    between atoms: _311  and  _312
REMARK  124  A    between atoms: _311  and  _314
REMARK  125  A    between atoms: _314  and  _315
REMARK  126  A    between atoms: _318  and  _320
REMARK  127  A    between atoms: _320  and  _321
REMARK  128  A    between atoms: _320  and  _323
REMARK  129  A    between atoms: _323  and  _324
REMARK  130  A    between atoms: _329  and  _330
REMARK  131  A    between atoms: _332  and  _334
REMARK  132  A    between atoms: _334  and  _335
REMARK  133  A    between atoms: _334  and  _337
REMARK  134  A    between atoms: _337  and  _338
REMARK  135  A    between atoms: _338  and  _339
REMARK  136  A    between atoms: _344  and  _346
REMARK  137  A    between atoms: _346  and  _347
REMARK  138  A    between atoms: _346  and  _349
REMARK  139  A    between atoms: _349  and  _350
REMARK  140  A    between atoms: _353  and  _355
REMARK  141  A    between atoms: _355  and  _356
REMARK  142  A    between atoms: _355  and  _358
REMARK  143  A    between atoms: _358  and  _359
REMARK  144  A    between atoms: _362  and  _364
REMARK  145  A    between atoms: _364  and  _365
REMARK  146  A    between atoms: _367  and  _369
REMARK  147  A    between atoms: _369  and  _370
REMARK  148  A    between atoms: _369  and  _372
REMARK  149  A    between atoms: _376  and  _377
REMARK  150  A    between atoms: _382  and  _384
REMARK  151  A    between atoms: _384  and  _385
REMARK  152  A    between atoms: _384  and  _387
REMARK  153  A    between atoms: _387  and  _388
REMARK  154  A    between atoms: _391  and  _393
REMARK  155  A    between atoms: _393  and  _394
REMARK  156  A    between atoms: _393  and  _396
REMARK  157  A    between atoms: _399  and  _401
REMARK  158  A    between atoms: _401  and  _402
REMARK  159  A    between atoms: _401  and  _404
REMARK  160  A    between atoms: _404  and  _405
REMARK  161  A    between atoms: _405  and  _406
REMARK  162  A    between atoms: _406  and  _407
REMARK  163  A    between atoms: _416  and  _418
REMARK  164  A    between atoms: _418  and  _419
REMARK  165  A    between atoms: _418  and  _421
REMARK  166  A    between atoms: _421  and  _422
REMARK  167  A    between atoms: _425  and  _427
REMARK  168  A    between atoms: _427  and  _428
REMARK  169  A    between atoms: _431  and  _433
REMARK  170  A    between atoms: _433  and  _434
REMARK  171  A    between atoms: _433  and  _436
REMARK  172  A    between atoms: _436  and  _437
REMARK  173  A    between atoms: _437  and  _438
REMARK  174  A    between atoms: _440  and  _442
REMARK  175  A    between atoms: _442  and  _443
REMARK  176  A    between atoms: _442  and  _445
REMARK  177  A    between atoms: _445  and  _446
REMARK  178  A    between atoms: _448  and  _450
REMARK  179  A    between atoms: _450  and  _451
REMARK  180  A    between atoms: _450  and  _453
REMARK  181  A    between atoms: _453  and  _454
REMARK  182  A    between atoms: _456  and  _458
REMARK  183  A    between atoms: _458  and  _459
REMARK  184  A    between atoms: _458  and  _461
REMARK  185  A    between atoms: _461  and  _462
REMARK  186  A    between atoms: _462  and  _463
REMARK  187  A    between atoms: _463  and  _464
REMARK  188  A    between atoms: _473  and  _475
REMARK  189  A    between atoms: _475  and  _476
REMARK  190  A    between atoms: _475  and  _478
REMARK  191  A    between atoms: _478  and  _479
REMARK  192  A    between atoms: _484  and  _486
REMARK  193  A    between atoms: _486  and  _487
REMARK  194  A    between atoms: _486  and  _489
REMARK  195  A    between atoms: _489  and  _490
REMARK  196  A    between atoms: _490  and  _491
REMARK  197  A    between atoms: _491  and  _492
REMARK  198  A    between atoms: _501  and  _503
REMARK  199  A    between atoms: _503  and  _504
REMARK  200  A    between atoms: _503  and  _506
REMARK  201  A    between atoms: _506  and  _507
REMARK  202  A    between atoms: _507  and  _508
REMARK  203  A    between atoms: _508  and  _509
REMARK  204  A    between atoms: _518  and  _520
REMARK  205  A    between atoms: _520  and  _521
REMARK  206  A    between atoms: _520  and  _523
REMARK  207  A    between atoms: _523  and  _524
REMARK  208  A    between atoms: _527  and  _529
REMARK  209  A    between atoms: _529  and  _530
REMARK  210  A    between atoms: _529  and  _532
REMARK  211  A    between atoms: _532  and  _533
REMARK  212  A    between atoms: _536  and  _538
REMARK  213  A    between atoms: _538  and  _539
REMARK  214  A    between atoms: _538  and  _541
REMARK  215  A    between atoms: _541  and  _542
REMARK                            x       y       z     vdW  Elec       q    Type
REMARK                         _______ _______ _______ _____ _____    ______ ____
ROOT
ATOM      1  O   HOH     1      22.994   9.737   5.532  0.00  0.00    +0.000 OA
ENDROOT
TORSDOF 0
REMARK  Name = ../refined-set-2016/3iue/3iue_pocket.pdb
REMARK  215 active torsions:
REMARK  status: ('A' for Active; 'I' for Inactive)
REMARK    1  A    between atoms: _1  and  _3
REMARK    2  A    between atoms: _3  and  _4
REMARK    3  A    between atoms: _3  and  _6
REMARK    4  A    between atoms: _10  and  _11
REMARK    5  A    between atoms: _16  and  _18
REMARK    6  A    between atoms: _18  and  _19
REMARK    7  A    between atoms: _18  and  _21
REMARK    8  A    between atoms: _21  and  _22
REMARK    9  A    between atoms: _25  and  _27
REMARK   10  A    between atoms: _27  and  _28
REMARK   11  A    between atoms: _27  and  _30
REMARK   12  A    between atoms: _30  and  _31
REMARK   13  A    between atoms: _31  and  _32
REMARK   14  A    between atoms: _34  and  _36
REMARK   15  A    between atoms: _36  and  _37
REMARK   16  A    between atoms: _39  and  _41
REMARK   17  A    between atoms: _41  and  _42
REMARK   18  A    between atoms: _45  and  _47
REMARK   19  A    between atoms: _47  and  _48
REMARK   20  A    between atoms: _47  and  _50
REMARK   21  A    between atoms: _50  and  _51
REMARK   22  A    between atoms: _54  and  _56
REMARK   23  A    between atoms: _56  and  _57
REMARK   24  A    between atoms: _56  and  _59
REMARK   25  A    between atoms: _59  and  _60
REMARK   26  A    between atoms: _65  and  _67
REMARK   27  A    between atoms: _67  and  _68
REMARK   28  A    between atoms: _67  and  _70
REMARK   29  A    between atoms: _70  and  _71
REMARK   30  A    between atoms: _71  and  _72
REMARK   31  A    between atoms: _75  and  _77
REMARK   32  A    between atoms: _77  and  _78
REMARK   33  A    between atoms: _80  and  _82
REMARK   34  A    between atoms: _82  and  _83
REMARK   35  A    between atoms: _82  and  _85
REMARK   36  A    between atoms: _85  and  _86
REMARK   37  A    between atoms: _91  and  _93
REMARK   38  A    between atoms: _93  and  _94
REMARK   39  A    between atoms: _93  and  _96
REMARK   40  A    between atoms: _96  and  _97
REMARK   41  A    between atoms: _100  and  _102
REMARK   42  A    between atoms: _102  and  _103
REMARK   43  A    between atoms: _106  and  _108
REMARK   44  A    between atoms: _108  and  _109
REMARK   45  A    between atoms: _108  and  _111
REMARK   46  A    between atoms: _111  and  _112
REMARK   47  A    between atoms: _115  and  _117
REMARK   48  A    between atoms: _117  and  _118
REMARK   49  A    between atoms: _117  and  _120
REMARK   50  A    between atoms: _123  and  _125
REMARK   51  A    between atoms: _125  and  _126
REMARK   52  A    between atoms: _125  and  _128
REMARK   53  A    between atoms: _128  and  _129
REMARK   54  A    between atoms: _131  and  _133
REMARK   55  A    between atoms: _133  and  _134
REMARK   56  A    between atoms: _133  and  _136
REMARK   57  A    between atoms: _136  and  _137
REMARK   58  A    between atoms: _140  and  _142
REMARK   59  A    between atoms: _142  and  _143
REMARK   60  A    between atoms: _142  and  _145
REMARK   61  A    between atoms: _145  and  _146
REMARK   62  A    between atoms: _152  and  _154
REMARK   63  A    between atoms: _154  and  _155
REMARK   64  A    between atoms: _154  and  _157
REMARK   65  A    between atoms: _157  and  _158
REMARK   66  A    between atoms: _163  and  _165
REMARK   67  A    between atoms: _165  and  _166
REMARK   68  A    between atoms: _165  and  _168
REMARK   69  A    between atoms: _168  and  _169
REMARK   70  A    between atoms: _169  and  _170
REMARK   71  A    between atoms: _175  and  _177
REMARK   72  A    between atoms: _177  and  _178
REMARK   73  A    between atoms: _177  and  _180
REMARK   74  A    between atoms: _180  and  _181
REMARK   75  A    between atoms: _187  and  _189
REMARK   76  A    between atoms: _189  and  _190
REMARK   77  A    between atoms: _189  and  _192
REMARK   78  A    between atoms: _192  and  _193
REMARK   79  A    between atoms: _198  and  _199
REMARK   80  A    between atoms: _202  and  _203
REMARK   81  A    between atoms: _208  and  _210
REMARK   82  A    between atoms: _210  and  _211
REMARK   83  A    between atoms: _210  and  _213
REMARK   84  A    between atoms: _213  and  _214
REMARK   85  A    between atoms: _214  and  _215
REMARK   86  A    between atoms: _218  and  _220
REMARK   87  A    between atoms: _220  and  _221
REMARK   88  A    between atoms: _220  and  _223
REMARK   89  A    between atoms: _223  and  _224
REMARK   90  A    between atoms: _229  and  _231
REMARK   91  A    between atoms: _231  and  _232
REMARK   92  A    between atoms: _231  and  _234
REMARK   93  A    between atoms: _234  and  _235
REMARK   94  A    between atoms: _241  and  _243
REMARK   95  A    between atoms: _243  and  _244
REMARK   96  A    between atoms: _243  and  _246
REMARK   97  A    between atoms: _249  and  _251
REMARK   98  A    between atoms: _251  and  _252
REMARK   99  A    between atoms: _251  and  _254
REMARK  100  A    between atoms: _257  and  _259
REMARK  101  A    between atoms: _259  and  _260
REMARK  102  A    between atoms: _259  and  _262
REMARK  103  A    between atoms: _262  and  _263
REMARK  104  A    between atoms: _269  and  _271
REMARK  105  A    between atoms: _271  and  _272
REMARK  106  A    between atoms: _271  and  _274
REMARK  107  A    between atoms: _274  and  _275
REMARK  108  A    between atoms: _281  and  _283
REMARK  109  A    between atoms: _283  and  _284
REMARK  110  A    between atoms: _286  and  _288
REMARK  111  A    between atoms: _288  and  _289
REMARK  112  A    between atoms: _288  and  _291
REMARK  113  A    between atoms: _291  and  _292
REMARK  114  A    between atoms: _292  and  _293
REMARK  115  A    between atoms: _296  and  _298
REMARK  116  A    between atoms: _298  and  _299
REMARK  117  A    between atoms: _298  and  _301
REMARK  118  A    between atoms: _301  and  _302
REMARK  119  A    between atoms: _302  and  _303
REMARK  120  A    between atoms: _303  and  _304
REMARK  121  A    between atoms: _304  and  _305
REMARK  122  A    between atoms: _309  and  _311
REMARK  123  A    between atoms: _311  and  _312
REMARK  124  A    between atoms: _311  and  _314
REMARK  125  A    between atoms: _314  and  _315
REMARK  126  A    between atoms: _318  and  _320
REMARK  127  A    between atoms: _320  and  _321
REMARK  128  A    between atoms: _320  and  _323
REMARK  129  A    between atoms: _323  and  _324
REMARK  130  A    between atoms: _329  and  _330
REMARK  131  A    between atoms: _332  and  _334
REMARK  132  A    between atoms: _334  and  _335
REMARK  133  A    between atoms: _334  and  _337
REMARK  134  A    between atoms: _337  and  _338
REMARK  135  A    between atoms: _338  and  _339
REMARK  136  A    between atoms: _344  and  _346
REMARK  137  A    between atoms: _346  and  _347
REMARK  138  A    between atoms: _346  and  _349
REMARK  139  A    between atoms: _349  and  _350
REMARK  140  A    between atoms: _353  and  _355
REMARK  141  A    between atoms: _355  and  _356
REMARK  142  A    between atoms: _355  and  _358
REMARK  143  A    between atoms: _358  and  _359
REMARK  144  A    between atoms: _362  and  _364
REMARK  145  A    between atoms: _364  and  _365
REMARK  146  A    between atoms: _367  and  _369
REMARK  147  A    between atoms: _369  and  _370
REMARK  148  A    between atoms: _369  and  _372
REMARK  149  A    between atoms: _376  and  _377
REMARK  150  A    between atoms: _382  and  _384
REMARK  151  A    between atoms: _384  and  _385
REMARK  152  A    between atoms: _384  and  _387
REMARK  153  A    between atoms: _387  and  _388
REMARK  154  A    between atoms: _391  and  _393
REMARK  155  A    between atoms: _393  and  _394
REMARK  156  A    between atoms: _393  and  _396
REMARK  157  A    between atoms: _399  and  _401
REMARK  158  A    between atoms: _401  and  _402
REMARK  159  A    between atoms: _401  and  _404
REMARK  160  A    between atoms: _404  and  _405
REMARK  161  A    between atoms: _405  and  _406
REMARK  162  A    between atoms: _406  and  _407
REMARK  163  A    between atoms: _416  and  _418
REMARK  164  A    between atoms: _418  and  _419
REMARK  165  A    between atoms: _418  and  _421
REMARK  166  A    between atoms: _421  and  _422
REMARK  167  A    between atoms: _425  and  _427
REMARK  168  A    between atoms: _427  and  _428
REMARK  169  A    between atoms: _431  and  _433
REMARK  170  A    between atoms: _433  and  _434
REMARK  171  A    between atoms: _433  and  _436
REMARK  172  A    between atoms: _436  and  _437
REMARK  173  A    between atoms: _437  and  _438
REMARK  174  A    between atoms: _440  and  _442
REMARK  175  A    between atoms: _442  and  _443
REMARK  176  A    between atoms: _442  and  _445
REMARK  177  A    between atoms: _445  and  _446
REMARK  178  A    between atoms: _448  and  _450
REMARK  179  A    between atoms: _450  and  _451
REMARK  180  A    between atoms: _450  and  _453
REMARK  181  A    between atoms: _453  and  _454
REMARK  182  A    between atoms: _456  and  _458
REMARK  183  A    between atoms: _458  and  _459
REMARK  184  A    between atoms: _458  and  _461
REMARK  185  A    between atoms: _461  and  _462
REMARK  186  A    between atoms: _462  and  _463
REMARK  187  A    between atoms: _463  and  _464
REMARK  188  A    between atoms: _473  and  _475
REMARK  189  A    between atoms: _475  and  _476
REMARK  190  A    between atoms: _475  and  _478
REMARK  191  A    between atoms: _478  and  _479
REMARK  192  A    between atoms: _484  and  _486
REMARK  193  A    between atoms: _486  and  _487
REMARK  194  A    between atoms: _486  and  _489
REMARK  195  A    between atoms: _489  and  _490
REMARK  196  A    between atoms: _490  and  _491
REMARK  197  A    between atoms: _491  and  _492
REMARK  198  A    between atoms: _501  and  _503
REMARK  199  A    between atoms: _503  and  _504
REMARK  200  A    between atoms: _503  and  _506
REMARK  201  A    between atoms: _506  and  _507
REMARK  202  A    between atoms: _507  and  _508
REMARK  203  A    between atoms: _508  and  _509
REMARK  204  A    between atoms: _518  and  _520
REMARK  205  A    between atoms: _520  and  _521
REMARK  206  A    between atoms: _520  and  _523
REMARK  207  A    between atoms: _523  and  _524
REMARK  208  A    between atoms: _527  and  _529
REMARK  209  A    between atoms: _529  and  _530
REMARK  210  A    between atoms: _529  and  _532
REMARK  211  A    between atoms: _532  and  _533
REMARK  212  A    between atoms: _536  and  _538
REMARK  213  A    between atoms: _538  and  _539
REMARK  214  A    between atoms: _538  and  _541
REMARK  215  A    between atoms: _541  and  _542
REMARK                            x       y       z     vdW  Elec       q    Type
REMARK                         _______ _______ _______ _____ _____    ______ ____
ROOT
ATOM      1  O   HOH     1      24.194   9.472  -1.623  0.00  0.00    +0.000 OA
ENDROOT
TORSDOF 0
REMARK  Name = ../refined-set-2016/3iue/3iue_pocket.pdb
REMARK  215 active torsions:
REMARK  status: ('A' for Active; 'I' for Inactive)
REMARK    1  A    between atoms: _1  and  _3
REMARK    2  A    between atoms: _3  and  _4
REMARK    3  A    between atoms: _3  and  _6
REMARK    4  A    between atoms: _10  and  _11
REMARK    5  A    between atoms: _16  and  _18
REMARK    6  A    between atoms: _18  and  _19
REMARK    7  A    between atoms: _18  and  _21
REMARK    8  A    between atoms: _21  and  _22
REMARK    9  A    between atoms: _25  and  _27
REMARK   10  A    between atoms: _27  and  _28
REMARK   11  A    between atoms: _27  and  _30
REMARK   12  A    between atoms: _30  and  _31
REMARK   13  A    between atoms: _31  and  _32
REMARK   14  A    between atoms: _34  and  _36
REMARK   15  A    between atoms: _36  and  _37
REMARK   16  A    between atoms: _39  and  _41
REMARK   17  A    between atoms: _41  and  _42
REMARK   18  A    between atoms: _45  and  _47
REMARK   19  A    between atoms: _47  and  _48
REMARK   20  A    between atoms: _47  and  _50
REMARK   21  A    between atoms: _50  and  _51
REMARK   22  A    between atoms: _54  and  _56
REMARK   23  A    between atoms: _56  and  _57
REMARK   24  A    between atoms: _56  and  _59
REMARK   25  A    between atoms: _59  and  _60
REMARK   26  A    between atoms: _65  and  _67
REMARK   27  A    between atoms: _67  and  _68
REMARK   28  A    between atoms: _67  and  _70
REMARK   29  A    between atoms: _70  and  _71
REMARK   30  A    between atoms: _71  and  _72
REMARK   31  A    between atoms: _75  and  _77
REMARK   32  A    between atoms: _77  and  _78
REMARK   33  A    between atoms: _80  and  _82
REMARK   34  A    between atoms: _82  and  _83
REMARK   35  A    between atoms: _82  and  _85
REMARK   36  A    between atoms: _85  and  _86
REMARK   37  A    between atoms: _91  and  _93
REMARK   38  A    between atoms: _93  and  _94
REMARK   39  A    between atoms: _93  and  _96
REMARK   40  A    between atoms: _96  and  _97
REMARK   41  A    between atoms: _100  and  _102
REMARK   42  A    between atoms: _102  and  _103
REMARK   43  A    between atoms: _106  and  _108
REMARK   44  A    between atoms: _108  and  _109
REMARK   45  A    between atoms: _108  and  _111
REMARK   46  A    between atoms: _111  and  _112
REMARK   47  A    between atoms: _115  and  _117
REMARK   48  A    between atoms: _117  and  _118
REMARK   49  A    between atoms: _117  and  _120
REMARK   50  A    between atoms: _123  and  _125
REMARK   51  A    between atoms: _125  and  _126
REMARK   52  A    between atoms: _125  and  _128
REMARK   53  A    between atoms: _128  and  _129
REMARK   54  A    between atoms: _131  and  _133
REMARK   55  A    between atoms: _133  and  _134
REMARK   56  A    between atoms: _133  and  _136
REMARK   57  A    between atoms: _136  and  _137
REMARK   58  A    between atoms: _140  and  _142
REMARK   59  A    between atoms: _142  and  _143
REMARK   60  A    between atoms: _142  and  _145
REMARK   61  A    between atoms: _145  and  _146
REMARK   62  A    between atoms: _152  and  _154
REMARK   63  A    between atoms: _154  and  _155
REMARK   64  A    between atoms: _154  and  _157
REMARK   65  A    between atoms: _157  and  _158
REMARK   66  A    between atoms: _163  and  _165
REMARK   67  A    between atoms: _165  and  _166
REMARK   68  A    between atoms: _165  and  _168
REMARK   69  A    between atoms: _168  and  _169
REMARK   70  A    between atoms: _169  and  _170
REMARK   71  A    between atoms: _175  and  _177
REMARK   72  A    between atoms: _177  and  _178
REMARK   73  A    between atoms: _177  and  _180
REMARK   74  A    between atoms: _180  and  _181
REMARK   75  A    between atoms: _187  and  _189
REMARK   76  A    between atoms: _189  and  _190
REMARK   77  A    between atoms: _189  and  _192
REMARK   78  A    between atoms: _192  and  _193
REMARK   79  A    between atoms: _198  and  _199
REMARK   80  A    between atoms: _202  and  _203
REMARK   81  A    between atoms: _208  and  _210
REMARK   82  A    between atoms: _210  and  _211
REMARK   83  A    between atoms: _210  and  _213
REMARK   84  A    between atoms: _213  and  _214
REMARK   85  A    between atoms: _214  and  _215
REMARK   86  A    between atoms: _218  and  _220
REMARK   87  A    between atoms: _220  and  _221
REMARK   88  A    between atoms: _220  and  _223
REMARK   89  A    between atoms: _223  and  _224
REMARK   90  A    between atoms: _229  and  _231
REMARK   91  A    between atoms: _231  and  _232
REMARK   92  A    between atoms: _231  and  _234
REMARK   93  A    between atoms: _234  and  _235
REMARK   94  A    between atoms: _241  and  _243
REMARK   95  A    between atoms: _243  and  _244
REMARK   96  A    between atoms: _243  and  _246
REMARK   97  A    between atoms: _249  and  _251
REMARK   98  A    between atoms: _251  and  _252
REMARK   99  A    between atoms: _251  and  _254
REMARK  100  A    between atoms: _257  and  _259
REMARK  101  A    between atoms: _259  and  _260
REMARK  102  A    between atoms: _259  and  _262
REMARK  103  A    between atoms: _262  and  _263
REMARK  104  A    between atoms: _269  and  _271
REMARK  105  A    between atoms: _271  and  _272
REMARK  106  A    between atoms: _271  and  _274
REMARK  107  A    between atoms: _274  and  _275
REMARK  108  A    between atoms: _281  and  _283
REMARK  109  A    between atoms: _283  and  _284
REMARK  110  A    between atoms: _286  and  _288
REMARK  111  A    between atoms: _288  and  _289
REMARK  112  A    between atoms: _288  and  _291
REMARK  113  A    between atoms: _291  and  _292
REMARK  114  A    between atoms: _292  and  _293
REMARK  115  A    between atoms: _296  and  _298
REMARK  116  A    between atoms: _298  and  _299
REMARK  117  A    between atoms: _298  and  _301
REMARK  118  A    between atoms: _301  and  _302
REMARK  119  A    between atoms: _302  and  _303
REMARK  120  A    between atoms: _303  and  _304
REMARK  121  A    between atoms: _304  and  _305
REMARK  122  A    between atoms: _309  and  _311
REMARK  123  A    between atoms: _311  and  _312
REMARK  124  A    between atoms: _311  and  _314
REMARK  125  A    between atoms: _314  and  _315
REMARK  126  A    between atoms: _318  and  _320
REMARK  127  A    between atoms: _320  and  _321
REMARK  128  A    between atoms: _320  and  _323
REMARK  129  A    between atoms: _323  and  _324
REMARK  130  A    between atoms: _329  and  _330
REMARK  131  A    between atoms: _332  and  _334
REMARK  132  A    between atoms: _334  and  _335
REMARK  133  A    between atoms: _334  and  _337
REMARK  134  A    between atoms: _337  and  _338
REMARK  135  A    between atoms: _338  and  _339
REMARK  136  A    between atoms: _344  and  _346
REMARK  137  A    between atoms: _346  and  _347
REMARK  138  A    between atoms: _346  and  _349
REMARK  139  A    between atoms: _349  and  _350
REMARK  140  A    between atoms: _353  and  _355
REMARK  141  A    between atoms: _355  and  _356
REMARK  142  A    between atoms: _355  and  _358
REMARK  143  A    between atoms: _358  and  _359
REMARK  144  A    between atoms: _362  and  _364
REMARK  145  A    between atoms: _364  and  _365
REMARK  146  A    between atoms: _367  and  _369
REMARK  147  A    between atoms: _369  and  _370
REMARK  148  A    between atoms: _369  and  _372
REMARK  149  A    between atoms: _376  and  _377
REMARK  150  A    between atoms: _382  and  _384
REMARK  151  A    between atoms: _384  and  _385
REMARK  152  A    between atoms: _384  and  _387
REMARK  153  A    between atoms: _387  and  _388
REMARK  154  A    between atoms: _391  and  _393
REMARK  155  A    between atoms: _393  and  _394
REMARK  156  A    between atoms: _393  and  _396
REMARK  157  A    between atoms: _399  and  _401
REMARK  158  A    between atoms: _401  and  _402
REMARK  159  A    between atoms: _401  and  _404
REMARK  160  A    between atoms: _404  and  _405
REMARK  161  A    between atoms: _405  and  _406
REMARK  162  A    between atoms: _406  and  _407
REMARK  163  A    between atoms: _416  and  _418
REMARK  164  A    between atoms: _418  and  _419
REMARK  165  A    between atoms: _418  and  _421
REMARK  166  A    between atoms: _421  and  _422
REMARK  167  A    between atoms: _425  and  _427
REMARK  168  A    between atoms: _427  and  _428
REMARK  169  A    between atoms: _431  and  _433
REMARK  170  A    between atoms: _433  and  _434
REMARK  171  A    between atoms: _433  and  _436
REMARK  172  A    between atoms: _436  and  _437
REMARK  173  A    between atoms: _437  and  _438
REMARK  174  A    between atoms: _440  and  _442
REMARK  175  A    between atoms: _442  and  _443
REMARK  176  A    between atoms: _442  and  _445
REMARK  177  A    between atoms: _445  and  _446
REMARK  178  A    between atoms: _448  and  _450
REMARK  179  A    between atoms: _450  and  _451
REMARK  180  A    between atoms: _450  and  _453
REMARK  181  A    between atoms: _453  and  _454
REMARK  182  A    between atoms: _456  and  _458
REMARK  183  A    between atoms: _458  and  _459
REMARK  184  A    between atoms: _458  and  _461
REMARK  185  A    between atoms: _461  and  _462
REMARK  186  A    between atoms: _462  and  _463
REMARK  187  A    between atoms: _463  and  _464
REMARK  188  A    between atoms: _473  and  _475
REMARK  189  A    between atoms: _475  and  _476
REMARK  190  A    between atoms: _475  and  _478
REMARK  191  A    between atoms: _478  and  _479
REMARK  192  A    between atoms: _484  and  _486
REMARK  193  A    between atoms: _486  and  _487
REMARK  194  A    between atoms: _486  and  _489
REMARK  195  A    between atoms: _489  and  _490
REMARK  196  A    between atoms: _490  and  _491
REMARK  197  A    between atoms: _491  and  _492
REMARK  198  A    between atoms: _501  and  _503
REMARK  199  A    between atoms: _503  and  _504
REMARK  200  A    between atoms: _503  and  _506
REMARK  201  A    between atoms: _506  and  _507
REMARK  202  A    between atoms: _507  and  _508
REMARK  203  A    between atoms: _508  and  _509
REMARK  204  A    between atoms: _518  and  _520
REMARK  205  A    between atoms: _520  and  _521
REMARK  206  A    between atoms: _520  and  _523
REMARK  207  A    between atoms: _523  and  _524
REMARK  208  A    between atoms: _527  and  _529
REMARK  209  A    between atoms: _529  and  _530
REMARK  210  A    between atoms: _529  and  _532
REMARK  211  A    between atoms: _532  and  _533
REMARK  212  A    between atoms: _536  and  _538
REMARK  213  A    between atoms: _538  and  _539
REMARK  214  A    between atoms: _538  and  _541
REMARK  215  A    between atoms: _541  and  _542
REMARK                            x       y       z     vdW  Elec       q    Type
REMARK                         _______ _______ _______ _____ _____    ______ ____
ROOT
ATOM      1  O   HOH     1       7.145  14.085  -9.248  0.00  0.00    +0.000 OA
ENDROOT
TORSDOF 0
REMARK  Name = ../refined-set-2016/3iue/3iue_pocket.pdb
REMARK  215 active torsions:
REMARK  status: ('A' for Active; 'I' for Inactive)
REMARK    1  A    between atoms: _1  and  _3
REMARK    2  A    between atoms: _3  and  _4
REMARK    3  A    between atoms: _3  and  _6
REMARK    4  A    between atoms: _10  and  _11
REMARK    5  A    between atoms: _16  and  _18
REMARK    6  A    between atoms: _18  and  _19
REMARK    7  A    between atoms: _18  and  _21
REMARK    8  A    between atoms: _21  and  _22
REMARK    9  A    between atoms: _25  and  _27
REMARK   10  A    between atoms: _27  and  _28
REMARK   11  A    between atoms: _27  and  _30
REMARK   12  A    between atoms: _30  and  _31
REMARK   13  A    between atoms: _31  and  _32
REMARK   14  A    between atoms: _34  and  _36
REMARK   15  A    between atoms: _36  and  _37
REMARK   16  A    between atoms: _39  and  _41
REMARK   17  A    between atoms: _41  and  _42
REMARK   18  A    between atoms: _45  and  _47
REMARK   19  A    between atoms: _47  and  _48
REMARK   20  A    between atoms: _47  and  _50
REMARK   21  A    between atoms: _50  and  _51
REMARK   22  A    between atoms: _54  and  _56
REMARK   23  A    between atoms: _56  and  _57
REMARK   24  A    between atoms: _56  and  _59
REMARK   25  A    between atoms: _59  and  _60
REMARK   26  A    between atoms: _65  and  _67
REMARK   27  A    between atoms: _67  and  _68
REMARK   28  A    between atoms: _67  and  _70
REMARK   29  A    between atoms: _70  and  _71
REMARK   30  A    between atoms: _71  and  _72
REMARK   31  A    between atoms: _75  and  _77
REMARK   32  A    between atoms: _77  and  _78
REMARK   33  A    between atoms: _80  and  _82
REMARK   34  A    between atoms: _82  and  _83
REMARK   35  A    between atoms: _82  and  _85
REMARK   36  A    between atoms: _85  and  _86
REMARK   37  A    between atoms: _91  and  _93
REMARK   38  A    between atoms: _93  and  _94
REMARK   39  A    between atoms: _93  and  _96
REMARK   40  A    between atoms: _96  and  _97
REMARK   41  A    between atoms: _100  and  _102
REMARK   42  A    between atoms: _102  and  _103
REMARK   43  A    between atoms: _106  and  _108
REMARK   44  A    between atoms: _108  and  _109
REMARK   45  A    between atoms: _108  and  _111
REMARK   46  A    between atoms: _111  and  _112
REMARK   47  A    between atoms: _115  and  _117
REMARK   48  A    between atoms: _117  and  _118
REMARK   49  A    between atoms: _117  and  _120
REMARK   50  A    between atoms: _123  and  _125
REMARK   51  A    between atoms: _125  and  _126
REMARK   52  A    between atoms: _125  and  _128
REMARK   53  A    between atoms: _128  and  _129
REMARK   54  A    between atoms: _131  and  _133
REMARK   55  A    between atoms: _133  and  _134
REMARK   56  A    between atoms: _133  and  _136
REMARK   57  A    between atoms: _136  and  _137
REMARK   58  A    between atoms: _140  and  _142
REMARK   59  A    between atoms: _142  and  _143
REMARK   60  A    between atoms: _142  and  _145
REMARK   61  A    between atoms: _145  and  _146
REMARK   62  A    between atoms: _152  and  _154
REMARK   63  A    between atoms: _154  and  _155
REMARK   64  A    between atoms: _154  and  _157
REMARK   65  A    between atoms: _157  and  _158
REMARK   66  A    between atoms: _163  and  _165
REMARK   67  A    between atoms: _165  and  _166
REMARK   68  A    between atoms: _165  and  _168
REMARK   69  A    between atoms: _168  and  _169
REMARK   70  A    between atoms: _169  and  _170
REMARK   71  A    between atoms: _175  and  _177
REMARK   72  A    between atoms: _177  and  _178
REMARK   73  A    between atoms: _177  and  _180
REMARK   74  A    between atoms: _180  and  _181
REMARK   75  A    between atoms: _187  and  _189
REMARK   76  A    between atoms: _189  and  _190
REMARK   77  A    between atoms: _189  and  _192
REMARK   78  A    between atoms: _192  and  _193
REMARK   79  A    between atoms: _198  and  _199
REMARK   80  A    between atoms: _202  and  _203
REMARK   81  A    between atoms: _208  and  _210
REMARK   82  A    between atoms: _210  and  _211
REMARK   83  A    between atoms: _210  and  _213
REMARK   84  A    between atoms: _213  and  _214
REMARK   85  A    between atoms: _214  and  _215
REMARK   86  A    between atoms: _218  and  _220
REMARK   87  A    between atoms: _220  and  _221
REMARK   88  A    between atoms: _220  and  _223
REMARK   89  A    between atoms: _223  and  _224
REMARK   90  A    between atoms: _229  and  _231
REMARK   91  A    between atoms: _231  and  _232
REMARK   92  A    between atoms: _231  and  _234
REMARK   93  A    between atoms: _234  and  _235
REMARK   94  A    between atoms: _241  and  _243
REMARK   95  A    between atoms: _243  and  _244
REMARK   96  A    between atoms: _243  and  _246
REMARK   97  A    between atoms: _249  and  _251
REMARK   98  A    between atoms: _251  and  _252
REMARK   99  A    between atoms: _251  and  _254
REMARK  100  A    between atoms: _257  and  _259
REMARK  101  A    between atoms: _259  and  _260
REMARK  102  A    between atoms: _259  and  _262
REMARK  103  A    between atoms: _262  and  _263
REMARK  104  A    between atoms: _269  and  _271
REMARK  105  A    between atoms: _271  and  _272
REMARK  106  A    between atoms: _271  and  _274
REMARK  107  A    between atoms: _274  and  _275
REMARK  108  A    between atoms: _281  and  _283
REMARK  109  A    between atoms: _283  and  _284
REMARK  110  A    between atoms: _286  and  _288
REMARK  111  A    between atoms: _288  and  _289
REMARK  112  A    between atoms: _288  and  _291
REMARK  113  A    between atoms: _291  and  _292
REMARK  114  A    between atoms: _292  and  _293
REMARK  115  A    between atoms: _296  and  _298
REMARK  116  A    between atoms: _298  and  _299
REMARK  117  A    between atoms: _298  and  _301
REMARK  118  A    between atoms: _301  and  _302
REMARK  119  A    between atoms: _302  and  _303
REMARK  120  A    between atoms: _303  and  _304
REMARK  121  A    between atoms: _304  and  _305
REMARK  122  A    between atoms: _309  and  _311
REMARK  123  A    between atoms: _311  and  _312
REMARK  124  A    between atoms: _311  and  _314
REMARK  125  A    between atoms: _314  and  _315
REMARK  126  A    between atoms: _318  and  _320
REMARK  127  A    between atoms: _320  and  _321
REMARK  128  A    between atoms: _320  and  _323
REMARK  129  A    between atoms: _323  and  _324
REMARK  130  A    between atoms: _329  and  _330
REMARK  131  A    between atoms: _332  and  _334
REMARK  132  A    between atoms: _334  and  _335
REMARK  133  A    between atoms: _334  and  _337
REMARK  134  A    between atoms: _337  and  _338
REMARK  135  A    between atoms: _338  and  _339
REMARK  136  A    between atoms: _344  and  _346
REMARK  137  A    between atoms: _346  and  _347
REMARK  138  A    between atoms: _346  and  _349
REMARK  139  A    between atoms: _349  and  _350
REMARK  140  A    between atoms: _353  and  _355
REMARK  141  A    between atoms: _355  and  _356
REMARK  142  A    between atoms: _355  and  _358
REMARK  143  A    between atoms: _358  and  _359
REMARK  144  A    between atoms: _362  and  _364
REMARK  145  A    between atoms: _364  and  _365
REMARK  146  A    between atoms: _367  and  _369
REMARK  147  A    between atoms: _369  and  _370
REMARK  148  A    between atoms: _369  and  _372
REMARK  149  A    between atoms: _376  and  _377
REMARK  150  A    between atoms: _382  and  _384
REMARK  151  A    between atoms: _384  and  _385
REMARK  152  A    between atoms: _384  and  _387
REMARK  153  A    between atoms: _387  and  _388
REMARK  154  A    between atoms: _391  and  _393
REMARK  155  A    between atoms: _393  and  _394
REMARK  156  A    between atoms: _393  and  _396
REMARK  157  A    between atoms: _399  and  _401
REMARK  158  A    between atoms: _401  and  _402
REMARK  159  A    between atoms: _401  and  _404
REMARK  160  A    between atoms: _404  and  _405
REMARK  161  A    between atoms: _405  and  _406
REMARK  162  A    between atoms: _406  and  _407
REMARK  163  A    between atoms: _416  and  _418
REMARK  164  A    between atoms: _418  and  _419
REMARK  165  A    between atoms: _418  and  _421
REMARK  166  A    between atoms: _421  and  _422
REMARK  167  A    between atoms: _425  and  _427
REMARK  168  A    between atoms: _427  and  _428
REMARK  169  A    between atoms: _431  and  _433
REMARK  170  A    between atoms: _433  and  _434
REMARK  171  A    between atoms: _433  and  _436
REMARK  172  A    between atoms: _436  and  _437
REMARK  173  A    between atoms: _437  and  _438
REMARK  174  A    between atoms: _440  and  _442
REMARK  175  A    between atoms: _442  and  _443
REMARK  176  A    between atoms: _442  and  _445
REMARK  177  A    between atoms: _445  and  _446
REMARK  178  A    between atoms: _448  and  _450
REMARK  179  A    between atoms: _450  and  _451
REMARK  180  A    between atoms: _450  and  _453
REMARK  181  A    between atoms: _453  and  _454
REMARK  182  A    between atoms: _456  and  _458
REMARK  183  A    between atoms: _458  and  _459
REMARK  184  A    between atoms: _458  and  _461
REMARK  185  A    between atoms: _461  and  _462
REMARK  186  A    between atoms: _462  and  _463
REMARK  187  A    between atoms: _463  and  _464
REMARK  188  A    between atoms: _473  and  _475
REMARK  189  A    between atoms: _475  and  _476
REMARK  190  A    between atoms: _475  and  _478
REMARK  191  A    between atoms: _478  and  _479
REMARK  192  A    between atoms: _484  and  _486
REMARK  193  A    between atoms: _486  and  _487
REMARK  194  A    between atoms: _486  and  _489
REMARK  195  A    between atoms: _489  and  _490
REMARK  196  A    between atoms: _490  and  _491
REMARK  197  A    between atoms: _491  and  _492
REMARK  198  A    between atoms: _501  and  _503
REMARK  199  A    between atoms: _503  and  _504
REMARK  200  A    between atoms: _503  and  _506
REMARK  201  A    between atoms: _506  and  _507
REMARK  202  A    between atoms: _507  and  _508
REMARK  203  A    between atoms: _508  and  _509
REMARK  204  A    between atoms: _518  and  _520
REMARK  205  A    between atoms: _520  and  _521
REMARK  206  A    between atoms: _520  and  _523
REMARK  207  A    between atoms: _523  and  _524
REMARK  208  A    between atoms: _527  and  _529
REMARK  209  A    between atoms: _529  and  _530
REMARK  210  A    between atoms: _529  and  _532
REMARK  211  A    between atoms: _532  and  _533
REMARK  212  A    between atoms: _536  and  _538
REMARK  213  A    between atoms: _538  and  _539
REMARK  214  A    between atoms: _538  and  _541
REMARK  215  A    between atoms: _541  and  _542
REMARK                            x       y       z     vdW  Elec       q    Type
REMARK                         _______ _______ _______ _____ _____    ______ ____
ROOT
ATOM      1  O   HOH     1      21.778   7.066   0.500  0.00  0.00    +0.000 OA
ENDROOT
TORSDOF 0
REMARK  Name = ../refined-set-2016/3iue/3iue_pocket.pdb
REMARK  215 active torsions:
REMARK  status: ('A' for Active; 'I' for Inactive)
REMARK    1  A    between atoms: _1  and  _3
REMARK    2  A    between atoms: _3  and  _4
REMARK    3  A    between atoms: _3  and  _6
REMARK    4  A    between atoms: _10  and  _11
REMARK    5  A    between atoms: _16  and  _18
REMARK    6  A    between atoms: _18  and  _19
REMARK    7  A    between atoms: _18  and  _21
REMARK    8  A    between atoms: _21  and  _22
REMARK    9  A    between atoms: _25  and  _27
REMARK   10  A    between atoms: _27  and  _28
REMARK   11  A    between atoms: _27  and  _30
REMARK   12  A    between atoms: _30  and  _31
REMARK   13  A    between atoms: _31  and  _32
REMARK   14  A    between atoms: _34  and  _36
REMARK   15  A    between atoms: _36  and  _37
REMARK   16  A    between atoms: _39  and  _41
REMARK   17  A    between atoms: _41  and  _42
REMARK   18  A    between atoms: _45  and  _47
REMARK   19  A    between atoms: _47  and  _48
REMARK   20  A    between atoms: _47  and  _50
REMARK   21  A    between atoms: _50  and  _51
REMARK   22  A    between atoms: _54  and  _56
REMARK   23  A    between atoms: _56  and  _57
REMARK   24  A    between atoms: _56  and  _59
REMARK   25  A    between atoms: _59  and  _60
REMARK   26  A    between atoms: _65  and  _67
REMARK   27  A    between atoms: _67  and  _68
REMARK   28  A    between atoms: _67  and  _70
REMARK   29  A    between atoms: _70  and  _71
REMARK   30  A    between atoms: _71  and  _72
REMARK   31  A    between atoms: _75  and  _77
REMARK   32  A    between atoms: _77  and  _78
REMARK   33  A    between atoms: _80  and  _82
REMARK   34  A    between atoms: _82  and  _83
REMARK   35  A    between atoms: _82  and  _85
REMARK   36  A    between atoms: _85  and  _86
REMARK   37  A    between atoms: _91  and  _93
REMARK   38  A    between atoms: _93  and  _94
REMARK   39  A    between atoms: _93  and  _96
REMARK   40  A    between atoms: _96  and  _97
REMARK   41  A    between atoms: _100  and  _102
REMARK   42  A    between atoms: _102  and  _103
REMARK   43  A    between atoms: _106  and  _108
REMARK   44  A    between atoms: _108  and  _109
REMARK   45  A    between atoms: _108  and  _111
REMARK   46  A    between atoms: _111  and  _112
REMARK   47  A    between atoms: _115  and  _117
REMARK   48  A    between atoms: _117  and  _118
REMARK   49  A    between atoms: _117  and  _120
REMARK   50  A    between atoms: _123  and  _125
REMARK   51  A    between atoms: _125  and  _126
REMARK   52  A    between atoms: _125  and  _128
REMARK   53  A    between atoms: _128  and  _129
REMARK   54  A    between atoms: _131  and  _133
REMARK   55  A    between atoms: _133  and  _134
REMARK   56  A    between atoms: _133  and  _136
REMARK   57  A    between atoms: _136  and  _137
REMARK   58  A    between atoms: _140  and  _142
REMARK   59  A    between atoms: _142  and  _143
REMARK   60  A    between atoms: _142  and  _145
REMARK   61  A    between atoms: _145  and  _146
REMARK   62  A    between atoms: _152  and  _154
REMARK   63  A    between atoms: _154  and  _155
REMARK   64  A    between atoms: _154  and  _157
REMARK   65  A    between atoms: _157  and  _158
REMARK   66  A    between atoms: _163  and  _165
REMARK   67  A    between atoms: _165  and  _166
REMARK   68  A    between atoms: _165  and  _168
REMARK   69  A    between atoms: _168  and  _169
REMARK   70  A    between atoms: _169  and  _170
REMARK   71  A    between atoms: _175  and  _177
REMARK   72  A    between atoms: _177  and  _178
REMARK   73  A    between atoms: _177  and  _180
REMARK   74  A    between atoms: _180  and  _181
REMARK   75  A    between atoms: _187  and  _189
REMARK   76  A    between atoms: _189  and  _190
REMARK   77  A    between atoms: _189  and  _192
REMARK   78  A    between atoms: _192  and  _193
REMARK   79  A    between atoms: _198  and  _199
REMARK   80  A    between atoms: _202  and  _203
REMARK   81  A    between atoms: _208  and  _210
REMARK   82  A    between atoms: _210  and  _211
REMARK   83  A    between atoms: _210  and  _213
REMARK   84  A    between atoms: _213  and  _214
REMARK   85  A    between atoms: _214  and  _215
REMARK   86  A    between atoms: _218  and  _220
REMARK   87  A    between atoms: _220  and  _221
REMARK   88  A    between atoms: _220  and  _223
REMARK   89  A    between atoms: _223  and  _224
REMARK   90  A    between atoms: _229  and  _231
REMARK   91  A    between atoms: _231  and  _232
REMARK   92  A    between atoms: _231  and  _234
REMARK   93  A    between atoms: _234  and  _235
REMARK   94  A    between atoms: _241  and  _243
REMARK   95  A    between atoms: _243  and  _244
REMARK   96  A    between atoms: _243  and  _246
REMARK   97  A    between atoms: _249  and  _251
REMARK   98  A    between atoms: _251  and  _252
REMARK   99  A    between atoms: _251  and  _254
REMARK  100  A    between atoms: _257  and  _259
REMARK  101  A    between atoms: _259  and  _260
REMARK  102  A    between atoms: _259  and  _262
REMARK  103  A    between atoms: _262  and  _263
REMARK  104  A    between atoms: _269  and  _271
REMARK  105  A    between atoms: _271  and  _272
REMARK  106  A    between atoms: _271  and  _274
REMARK  107  A    between atoms: _274  and  _275
REMARK  108  A    between atoms: _281  and  _283
REMARK  109  A    between atoms: _283  and  _284
REMARK  110  A    between atoms: _286  and  _288
REMARK  111  A    between atoms: _288  and  _289
REMARK  112  A    between atoms: _288  and  _291
REMARK  113  A    between atoms: _291  and  _292
REMARK  114  A    between atoms: _292  and  _293
REMARK  115  A    between atoms: _296  and  _298
REMARK  116  A    between atoms: _298  and  _299
REMARK  117  A    between atoms: _298  and  _301
REMARK  118  A    between atoms: _301  and  _302
REMARK  119  A    between atoms: _302  and  _303
REMARK  120  A    between atoms: _303  and  _304
REMARK  121  A    between atoms: _304  and  _305
REMARK  122  A    between atoms: _309  and  _311
REMARK  123  A    between atoms: _311  and  _312
REMARK  124  A    between atoms: _311  and  _314
REMARK  125  A    between atoms: _314  and  _315
REMARK  126  A    between atoms: _318  and  _320
REMARK  127  A    between atoms: _320  and  _321
REMARK  128  A    between atoms: _320  and  _323
REMARK  129  A    between atoms: _323  and  _324
REMARK  130  A    between atoms: _329  and  _330
REMARK  131  A    between atoms: _332  and  _334
REMARK  132  A    between atoms: _334  and  _335
REMARK  133  A    between atoms: _334  and  _337
REMARK  134  A    between atoms: _337  and  _338
REMARK  135  A    between atoms: _338  and  _339
REMARK  136  A    between atoms: _344  and  _346
REMARK  137  A    between atoms: _346  and  _347
REMARK  138  A    between atoms: _346  and  _349
REMARK  139  A    between atoms: _349  and  _350
REMARK  140  A    between atoms: _353  and  _355
REMARK  141  A    between atoms: _355  and  _356
REMARK  142  A    between atoms: _355  and  _358
REMARK  143  A    between atoms: _358  and  _359
REMARK  144  A    between atoms: _362  and  _364
REMARK  145  A    between atoms: _364  and  _365
REMARK  146  A    between atoms: _367  and  _369
REMARK  147  A    between atoms: _369  and  _370
REMARK  148  A    between atoms: _369  and  _372
REMARK  149  A    between atoms: _376  and  _377
REMARK  150  A    between atoms: _382  and  _384
REMARK  151  A    between atoms: _384  and  _385
REMARK  152  A    between atoms: _384  and  _387
REMARK  153  A    between atoms: _387  and  _388
REMARK  154  A    between atoms: _391  and  _393
REMARK  155  A    between atoms: _393  and  _394
REMARK  156  A    between atoms: _393  and  _396
REMARK  157  A    between atoms: _399  and  _401
REMARK  158  A    between atoms: _401  and  _402
REMARK  159  A    between atoms: _401  and  _404
REMARK  160  A    between atoms: _404  and  _405
REMARK  161  A    between atoms: _405  and  _406
REMARK  162  A    between atoms: _406  and  _407
REMARK  163  A    between atoms: _416  and  _418
REMARK  164  A    between atoms: _418  and  _419
REMARK  165  A    between atoms: _418  and  _421
REMARK  166  A    between atoms: _421  and  _422
REMARK  167  A    between atoms: _425  and  _427
REMARK  168  A    between atoms: _427  and  _428
REMARK  169  A    between atoms: _431  and  _433
REMARK  170  A    between atoms: _433  and  _434
REMARK  171  A    between atoms: _433  and  _436
REMARK  172  A    between atoms: _436  and  _437
REMARK  173  A    between atoms: _437  and  _438
REMARK  174  A    between atoms: _440  and  _442
REMARK  175  A    between atoms: _442  and  _443
REMARK  176  A    between atoms: _442  and  _445
REMARK  177  A    between atoms: _445  and  _446
REMARK  178  A    between atoms: _448  and  _450
REMARK  179  A    between atoms: _450  and  _451
REMARK  180  A    between atoms: _450  and  _453
REMARK  181  A    between atoms: _453  and  _454
REMARK  182  A    between atoms: _456  and  _458
REMARK  183  A    between atoms: _458  and  _459
REMARK  184  A    between atoms: _458  and  _461
REMARK  185  A    between atoms: _461  and  _462
REMARK  186  A    between atoms: _462  and  _463
REMARK  187  A    between atoms: _463  and  _464
REMARK  188  A    between atoms: _473  and  _475
REMARK  189  A    between atoms: _475  and  _476
REMARK  190  A    between atoms: _475  and  _478
REMARK  191  A    between atoms: _478  and  _479
REMARK  192  A    between atoms: _484  and  _486
REMARK  193  A    between atoms: _486  and  _487
REMARK  194  A    between atoms: _486  and  _489
REMARK  195  A    between atoms: _489  and  _490
REMARK  196  A    between atoms: _490  and  _491
REMARK  197  A    between atoms: _491  and  _492
REMARK  198  A    between atoms: _501  and  _503
REMARK  199  A    between atoms: _503  and  _504
REMARK  200  A    between atoms: _503  and  _506
REMARK  201  A    between atoms: _506  and  _507
REMARK  202  A    between atoms: _507  and  _508
REMARK  203  A    between atoms: _508  and  _509
REMARK  204  A    between atoms: _518  and  _520
REMARK  205  A    between atoms: _520  and  _521
REMARK  206  A    between atoms: _520  and  _523
REMARK  207  A    between atoms: _523  and  _524
REMARK  208  A    between atoms: _527  and  _529
REMARK  209  A    between atoms: _529  and  _530
REMARK  210  A    between atoms: _529  and  _532
REMARK  211  A    between atoms: _532  and  _533
REMARK  212  A    between atoms: _536  and  _538
REMARK  213  A    between atoms: _538  and  _539
REMARK  214  A    between atoms: _538  and  _541
REMARK  215  A    between atoms: _541  and  _542
REMARK                            x       y       z     vdW  Elec       q    Type
REMARK                         _______ _______ _______ _____ _____    ______ ____
ROOT
ATOM      1  O   HOH     1       4.217   6.884  -7.423  0.00  0.00    +0.000 OA
ENDROOT
TORSDOF 0
REMARK  Name = ../refined-set-2016/3iue/3iue_pocket.pdb
REMARK  215 active torsions:
REMARK  status: ('A' for Active; 'I' for Inactive)
REMARK    1  A    between atoms: _1  and  _3
REMARK    2  A    between atoms: _3  and  _4
REMARK    3  A    between atoms: _3  and  _6
REMARK    4  A    between atoms: _10  and  _11
REMARK    5  A    between atoms: _16  and  _18
REMARK    6  A    between atoms: _18  and  _19
REMARK    7  A    between atoms: _18  and  _21
REMARK    8  A    between atoms: _21  and  _22
REMARK    9  A    between atoms: _25  and  _27
REMARK   10  A    between atoms: _27  and  _28
REMARK   11  A    between atoms: _27  and  _30
REMARK   12  A    between atoms: _30  and  _31
REMARK   13  A    between atoms: _31  and  _32
REMARK   14  A    between atoms: _34  and  _36
REMARK   15  A    between atoms: _36  and  _37
REMARK   16  A    between atoms: _39  and  _41
REMARK   17  A    between atoms: _41  and  _42
REMARK   18  A    between atoms: _45  and  _47
REMARK   19  A    between atoms: _47  and  _48
REMARK   20  A    between atoms: _47  and  _50
REMARK   21  A    between atoms: _50  and  _51
REMARK   22  A    between atoms: _54  and  _56
REMARK   23  A    between atoms: _56  and  _57
REMARK   24  A    between atoms: _56  and  _59
REMARK   25  A    between atoms: _59  and  _60
REMARK   26  A    between atoms: _65  and  _67
REMARK   27  A    between atoms: _67  and  _68
REMARK   28  A    between atoms: _67  and  _70
REMARK   29  A    between atoms: _70  and  _71
REMARK   30  A    between atoms: _71  and  _72
REMARK   31  A    between atoms: _75  and  _77
REMARK   32  A    between atoms: _77  and  _78
REMARK   33  A    between atoms: _80  and  _82
REMARK   34  A    between atoms: _82  and  _83
REMARK   35  A    between atoms: _82  and  _85
REMARK   36  A    between atoms: _85  and  _86
REMARK   37  A    between atoms: _91  and  _93
REMARK   38  A    between atoms: _93  and  _94
REMARK   39  A    between atoms: _93  and  _96
REMARK   40  A    between atoms: _96  and  _97
REMARK   41  A    between atoms: _100  and  _102
REMARK   42  A    between atoms: _102  and  _103
REMARK   43  A    between atoms: _106  and  _108
REMARK   44  A    between atoms: _108  and  _109
REMARK   45  A    between atoms: _108  and  _111
REMARK   46  A    between atoms: _111  and  _112
REMARK   47  A    between atoms: _115  and  _117
REMARK   48  A    between atoms: _117  and  _118
REMARK   49  A    between atoms: _117  and  _120
REMARK   50  A    between atoms: _123  and  _125
REMARK   51  A    between atoms: _125  and  _126
REMARK   52  A    between atoms: _125  and  _128
REMARK   53  A    between atoms: _128  and  _129
REMARK   54  A    between atoms: _131  and  _133
REMARK   55  A    between atoms: _133  and  _134
REMARK   56  A    between atoms: _133  and  _136
REMARK   57  A    between atoms: _136  and  _137
REMARK   58  A    between atoms: _140  and  _142
REMARK   59  A    between atoms: _142  and  _143
REMARK   60  A    between atoms: _142  and  _145
REMARK   61  A    between atoms: _145  and  _146
REMARK   62  A    between atoms: _152  and  _154
REMARK   63  A    between atoms: _154  and  _155
REMARK   64  A    between atoms: _154  and  _157
REMARK   65  A    between atoms: _157  and  _158
REMARK   66  A    between atoms: _163  and  _165
REMARK   67  A    between atoms: _165  and  _166
REMARK   68  A    between atoms: _165  and  _168
REMARK   69  A    between atoms: _168  and  _169
REMARK   70  A    between atoms: _169  and  _170
REMARK   71  A    between atoms: _175  and  _177
REMARK   72  A    between atoms: _177  and  _178
REMARK   73  A    between atoms: _177  and  _180
REMARK   74  A    between atoms: _180  and  _181
REMARK   75  A    between atoms: _187  and  _189
REMARK   76  A    between atoms: _189  and  _190
REMARK   77  A    between atoms: _189  and  _192
REMARK   78  A    between atoms: _192  and  _193
REMARK   79  A    between atoms: _198  and  _199
REMARK   80  A    between atoms: _202  and  _203
REMARK   81  A    between atoms: _208  and  _210
REMARK   82  A    between atoms: _210  and  _211
REMARK   83  A    between atoms: _210  and  _213
REMARK   84  A    between atoms: _213  and  _214
REMARK   85  A    between atoms: _214  and  _215
REMARK   86  A    between atoms: _218  and  _220
REMARK   87  A    between atoms: _220  and  _221
REMARK   88  A    between atoms: _220  and  _223
REMARK   89  A    between atoms: _223  and  _224
REMARK   90  A    between atoms: _229  and  _231
REMARK   91  A    between atoms: _231  and  _232
REMARK   92  A    between atoms: _231  and  _234
REMARK   93  A    between atoms: _234  and  _235
REMARK   94  A    between atoms: _241  and  _243
REMARK   95  A    between atoms: _243  and  _244
REMARK   96  A    between atoms: _243  and  _246
REMARK   97  A    between atoms: _249  and  _251
REMARK   98  A    between atoms: _251  and  _252
REMARK   99  A    between atoms: _251  and  _254
REMARK  100  A    between atoms: _257  and  _259
REMARK  101  A    between atoms: _259  and  _260
REMARK  102  A    between atoms: _259  and  _262
REMARK  103  A    between atoms: _262  and  _263
REMARK  104  A    between atoms: _269  and  _271
REMARK  105  A    between atoms: _271  and  _272
REMARK  106  A    between atoms: _271  and  _274
REMARK  107  A    between atoms: _274  and  _275
REMARK  108  A    between atoms: _281  and  _283
REMARK  109  A    between atoms: _283  and  _284
REMARK  110  A    between atoms: _286  and  _288
REMARK  111  A    between atoms: _288  and  _289
REMARK  112  A    between atoms: _288  and  _291
REMARK  113  A    between atoms: _291  and  _292
REMARK  114  A    between atoms: _292  and  _293
REMARK  115  A    between atoms: _296  and  _298
REMARK  116  A    between atoms: _298  and  _299
REMARK  117  A    between atoms: _298  and  _301
REMARK  118  A    between atoms: _301  and  _302
REMARK  119  A    between atoms: _302  and  _303
REMARK  120  A    between atoms: _303  and  _304
REMARK  121  A    between atoms: _304  and  _305
REMARK  122  A    between atoms: _309  and  _311
REMARK  123  A    between atoms: _311  and  _312
REMARK  124  A    between atoms: _311  and  _314
REMARK  125  A    between atoms: _314  and  _315
REMARK  126  A    between atoms: _318  and  _320
REMARK  127  A    between atoms: _320  and  _321
REMARK  128  A    between atoms: _320  and  _323
REMARK  129  A    between atoms: _323  and  _324
REMARK  130  A    between atoms: _329  and  _330
REMARK  131  A    between atoms: _332  and  _334
REMARK  132  A    between atoms: _334  and  _335
REMARK  133  A    between atoms: _334  and  _337
REMARK  134  A    between atoms: _337  and  _338
REMARK  135  A    between atoms: _338  and  _339
REMARK  136  A    between atoms: _344  and  _346
REMARK  137  A    between atoms: _346  and  _347
REMARK  138  A    between atoms: _346  and  _349
REMARK  139  A    between atoms: _349  and  _350
REMARK  140  A    between atoms: _353  and  _355
REMARK  141  A    between atoms: _355  and  _356
REMARK  142  A    between atoms: _355  and  _358
REMARK  143  A    between atoms: _358  and  _359
REMARK  144  A    between atoms: _362  and  _364
REMARK  145  A    between atoms: _364  and  _365
REMARK  146  A    between atoms: _367  and  _369
REMARK  147  A    between atoms: _369  and  _370
REMARK  148  A    between atoms: _369  and  _372
REMARK  149  A    between atoms: _376  and  _377
REMARK  150  A    between atoms: _382  and  _384
REMARK  151  A    between atoms: _384  and  _385
REMARK  152  A    between atoms: _384  and  _387
REMARK  153  A    between atoms: _387  and  _388
REMARK  154  A    between atoms: _391  and  _393
REMARK  155  A    between atoms: _393  and  _394
REMARK  156  A    between atoms: _393  and  _396
REMARK  157  A    between atoms: _399  and  _401
REMARK  158  A    between atoms: _401  and  _402
REMARK  159  A    between atoms: _401  and  _404
REMARK  160  A    between atoms: _404  and  _405
REMARK  161  A    between atoms: _405  and  _406
REMARK  162  A    between atoms: _406  and  _407
REMARK  163  A    between atoms: _416  and  _418
REMARK  164  A    between atoms: _418  and  _419
REMARK  165  A    between atoms: _418  and  _421
REMARK  166  A    between atoms: _421  and  _422
REMARK  167  A    between atoms: _425  and  _427
REMARK  168  A    between atoms: _427  and  _428
REMARK  169  A    between atoms: _431  and  _433
REMARK  170  A    between atoms: _433  and  _434
REMARK  171  A    between atoms: _433  and  _436
REMARK  172  A    between atoms: _436  and  _437
REMARK  173  A    between atoms: _437  and  _438
REMARK  174  A    between atoms: _440  and  _442
REMARK  175  A    between atoms: _442  and  _443
REMARK  176  A    between atoms: _442  and  _445
REMARK  177  A    between atoms: _445  and  _446
REMARK  178  A    between atoms: _448  and  _450
REMARK  179  A    between atoms: _450  and  _451
REMARK  180  A    between atoms: _450  and  _453
REMARK  181  A    between atoms: _453  and  _454
REMARK  182  A    between atoms: _456  and  _458
REMARK  183  A    between atoms: _458  and  _459
REMARK  184  A    between atoms: _458  and  _461
REMARK  185  A    between atoms: _461  and  _462
REMARK  186  A    between atoms: _462  and  _463
REMARK  187  A    between atoms: _463  and  _464
REMARK  188  A    between atoms: _473  and  _475
REMARK  189  A    between atoms: _475  and  _476
REMARK  190  A    between atoms: _475  and  _478
REMARK  191  A    between atoms: _478  and  _479
REMARK  192  A    between atoms: _484  and  _486
REMARK  193  A    between atoms: _486  and  _487
REMARK  194  A    between atoms: _486  and  _489
REMARK  195  A    between atoms: _489  and  _490
REMARK  196  A    between atoms: _490  and  _491
REMARK  197  A    between atoms: _491  and  _492
REMARK  198  A    between atoms: _501  and  _503
REMARK  199  A    between atoms: _503  and  _504
REMARK  200  A    between atoms: _503  and  _506
REMARK  201  A    between atoms: _506  and  _507
REMARK  202  A    between atoms: _507  and  _508
REMARK  203  A    between atoms: _508  and  _509
REMARK  204  A    between atoms: _518  and  _520
REMARK  205  A    between atoms: _520  and  _521
REMARK  206  A    between atoms: _520  and  _523
REMARK  207  A    between atoms: _523  and  _524
REMARK  208  A    between atoms: _527  and  _529
REMARK  209  A    between atoms: _529  and  _530
REMARK  210  A    between atoms: _529  and  _532
REMARK  211  A    between atoms: _532  and  _533
REMARK  212  A    between atoms: _536  and  _538
REMARK  213  A    between atoms: _538  and  _539
REMARK  214  A    between atoms: _538  and  _541
REMARK  215  A    between atoms: _541  and  _542
REMARK                            x       y       z     vdW  Elec       q    Type
REMARK                         _______ _______ _______ _____ _____    ______ ____
ROOT
ATOM      1  O   HOH     1      16.976   7.786   7.152  0.00  0.00    +0.000 OA
ENDROOT
TORSDOF 0
REMARK  Name = ../refined-set-2016/3iue/3iue_pocket.pdb
REMARK  215 active torsions:
REMARK  status: ('A' for Active; 'I' for Inactive)
REMARK    1  A    between atoms: _1  and  _3
REMARK    2  A    between atoms: _3  and  _4
REMARK    3  A    between atoms: _3  and  _6
REMARK    4  A    between atoms: _10  and  _11
REMARK    5  A    between atoms: _16  and  _18
REMARK    6  A    between atoms: _18  and  _19
REMARK    7  A    between atoms: _18  and  _21
REMARK    8  A    between atoms: _21  and  _22
REMARK    9  A    between atoms: _25  and  _27
REMARK   10  A    between atoms: _27  and  _28
REMARK   11  A    between atoms: _27  and  _30
REMARK   12  A    between atoms: _30  and  _31
REMARK   13  A    between atoms: _31  and  _32
REMARK   14  A    between atoms: _34  and  _36
REMARK   15  A    between atoms: _36  and  _37
REMARK   16  A    between atoms: _39  and  _41
REMARK   17  A    between atoms: _41  and  _42
REMARK   18  A    between atoms: _45  and  _47
REMARK   19  A    between atoms: _47  and  _48
REMARK   20  A    between atoms: _47  and  _50
REMARK   21  A    between atoms: _50  and  _51
REMARK   22  A    between atoms: _54  and  _56
REMARK   23  A    between atoms: _56  and  _57
REMARK   24  A    between atoms: _56  and  _59
REMARK   25  A    between atoms: _59  and  _60
REMARK   26  A    between atoms: _65  and  _67
REMARK   27  A    between atoms: _67  and  _68
REMARK   28  A    between atoms: _67  and  _70
REMARK   29  A    between atoms: _70  and  _71
REMARK   30  A    between atoms: _71  and  _72
REMARK   31  A    between atoms: _75  and  _77
REMARK   32  A    between atoms: _77  and  _78
REMARK   33  A    between atoms: _80  and  _82
REMARK   34  A    between atoms: _82  and  _83
REMARK   35  A    between atoms: _82  and  _85
REMARK   36  A    between atoms: _85  and  _86
REMARK   37  A    between atoms: _91  and  _93
REMARK   38  A    between atoms: _93  and  _94
REMARK   39  A    between atoms: _93  and  _96
REMARK   40  A    between atoms: _96  and  _97
REMARK   41  A    between atoms: _100  and  _102
REMARK   42  A    between atoms: _102  and  _103
REMARK   43  A    between atoms: _106  and  _108
REMARK   44  A    between atoms: _108  and  _109
REMARK   45  A    between atoms: _108  and  _111
REMARK   46  A    between atoms: _111  and  _112
REMARK   47  A    between atoms: _115  and  _117
REMARK   48  A    between atoms: _117  and  _118
REMARK   49  A    between atoms: _117  and  _120
REMARK   50  A    between atoms: _123  and  _125
REMARK   51  A    between atoms: _125  and  _126
REMARK   52  A    between atoms: _125  and  _128
REMARK   53  A    between atoms: _128  and  _129
REMARK   54  A    between atoms: _131  and  _133
REMARK   55  A    between atoms: _133  and  _134
REMARK   56  A    between atoms: _133  and  _136
REMARK   57  A    between atoms: _136  and  _137
REMARK   58  A    between atoms: _140  and  _142
REMARK   59  A    between atoms: _142  and  _143
REMARK   60  A    between atoms: _142  and  _145
REMARK   61  A    between atoms: _145  and  _146
REMARK   62  A    between atoms: _152  and  _154
REMARK   63  A    between atoms: _154  and  _155
REMARK   64  A    between atoms: _154  and  _157
REMARK   65  A    between atoms: _157  and  _158
REMARK   66  A    between atoms: _163  and  _165
REMARK   67  A    between atoms: _165  and  _166
REMARK   68  A    between atoms: _165  and  _168
REMARK   69  A    between atoms: _168  and  _169
REMARK   70  A    between atoms: _169  and  _170
REMARK   71  A    between atoms: _175  and  _177
REMARK   72  A    between atoms: _177  and  _178
REMARK   73  A    between atoms: _177  and  _180
REMARK   74  A    between atoms: _180  and  _181
REMARK   75  A    between atoms: _187  and  _189
REMARK   76  A    between atoms: _189  and  _190
REMARK   77  A    between atoms: _189  and  _192
REMARK   78  A    between atoms: _192  and  _193
REMARK   79  A    between atoms: _198  and  _199
REMARK   80  A    between atoms: _202  and  _203
REMARK   81  A    between atoms: _208  and  _210
REMARK   82  A    between atoms: _210  and  _211
REMARK   83  A    between atoms: _210  and  _213
REMARK   84  A    between atoms: _213  and  _214
REMARK   85  A    between atoms: _214  and  _215
REMARK   86  A    between atoms: _218  and  _220
REMARK   87  A    between atoms: _220  and  _221
REMARK   88  A    between atoms: _220  and  _223
REMARK   89  A    between atoms: _223  and  _224
REMARK   90  A    between atoms: _229  and  _231
REMARK   91  A    between atoms: _231  and  _232
REMARK   92  A    between atoms: _231  and  _234
REMARK   93  A    between atoms: _234  and  _235
REMARK   94  A    between atoms: _241  and  _243
REMARK   95  A    between atoms: _243  and  _244
REMARK   96  A    between atoms: _243  and  _246
REMARK   97  A    between atoms: _249  and  _251
REMARK   98  A    between atoms: _251  and  _252
REMARK   99  A    between atoms: _251  and  _254
REMARK  100  A    between atoms: _257  and  _259
REMARK  101  A    between atoms: _259  and  _260
REMARK  102  A    between atoms: _259  and  _262
REMARK  103  A    between atoms: _262  and  _263
REMARK  104  A    between atoms: _269  and  _271
REMARK  105  A    between atoms: _271  and  _272
REMARK  106  A    between atoms: _271  and  _274
REMARK  107  A    between atoms: _274  and  _275
REMARK  108  A    between atoms: _281  and  _283
REMARK  109  A    between atoms: _283  and  _284
REMARK  110  A    between atoms: _286  and  _288
REMARK  111  A    between atoms: _288  and  _289
REMARK  112  A    between atoms: _288  and  _291
REMARK  113  A    between atoms: _291  and  _292
REMARK  114  A    between atoms: _292  and  _293
REMARK  115  A    between atoms: _296  and  _298
REMARK  116  A    between atoms: _298  and  _299
REMARK  117  A    between atoms: _298  and  _301
REMARK  118  A    between atoms: _301  and  _302
REMARK  119  A    between atoms: _302  and  _303
REMARK  120  A    between atoms: _303  and  _304
REMARK  121  A    between atoms: _304  and  _305
REMARK  122  A    between atoms: _309  and  _311
REMARK  123  A    between atoms: _311  and  _312
REMARK  124  A    between atoms: _311  and  _314
REMARK  125  A    between atoms: _314  and  _315
REMARK  126  A    between atoms: _318  and  _320
REMARK  127  A    between atoms: _320  and  _321
REMARK  128  A    between atoms: _320  and  _323
REMARK  129  A    between atoms: _323  and  _324
REMARK  130  A    between atoms: _329  and  _330
REMARK  131  A    between atoms: _332  and  _334
REMARK  132  A    between atoms: _334  and  _335
REMARK  133  A    between atoms: _334  and  _337
REMARK  134  A    between atoms: _337  and  _338
REMARK  135  A    between atoms: _338  and  _339
REMARK  136  A    between atoms: _344  and  _346
REMARK  137  A    between atoms: _346  and  _347
REMARK  138  A    between atoms: _346  and  _349
REMARK  139  A    between atoms: _349  and  _350
REMARK  140  A    between atoms: _353  and  _355
REMARK  141  A    between atoms: _355  and  _356
REMARK  142  A    between atoms: _355  and  _358
REMARK  143  A    between atoms: _358  and  _359
REMARK  144  A    between atoms: _362  and  _364
REMARK  145  A    between atoms: _364  and  _365
REMARK  146  A    between atoms: _367  and  _369
REMARK  147  A    between atoms: _369  and  _370
REMARK  148  A    between atoms: _369  and  _372
REMARK  149  A    between atoms: _376  and  _377
REMARK  150  A    between atoms: _382  and  _384
REMARK  151  A    between atoms: _384  and  _385
REMARK  152  A    between atoms: _384  and  _387
REMARK  153  A    between atoms: _387  and  _388
REMARK  154  A    between atoms: _391  and  _393
REMARK  155  A    between atoms: _393  and  _394
REMARK  156  A    between atoms: _393  and  _396
REMARK  157  A    between atoms: _399  and  _401
REMARK  158  A    between atoms: _401  and  _402
REMARK  159  A    between atoms: _401  and  _404
REMARK  160  A    between atoms: _404  and  _405
REMARK  161  A    between atoms: _405  and  _406
REMARK  162  A    between atoms: _406  and  _407
REMARK  163  A    between atoms: _416  and  _418
REMARK  164  A    between atoms: _418  and  _419
REMARK  165  A    between atoms: _418  and  _421
REMARK  166  A    between atoms: _421  and  _422
REMARK  167  A    between atoms: _425  and  _427
REMARK  168  A    between atoms: _427  and  _428
REMARK  169  A    between atoms: _431  and  _433
REMARK  170  A    between atoms: _433  and  _434
REMARK  171  A    between atoms: _433  and  _436
REMARK  172  A    between atoms: _436  and  _437
REMARK  173  A    between atoms: _437  and  _438
REMARK  174  A    between atoms: _440  and  _442
REMARK  175  A    between atoms: _442  and  _443
REMARK  176  A    between atoms: _442  and  _445
REMARK  177  A    between atoms: _445  and  _446
REMARK  178  A    between atoms: _448  and  _450
REMARK  179  A    between atoms: _450  and  _451
REMARK  180  A    between atoms: _450  and  _453
REMARK  181  A    between atoms: _453  and  _454
REMARK  182  A    between atoms: _456  and  _458
REMARK  183  A    between atoms: _458  and  _459
REMARK  184  A    between atoms: _458  and  _461
REMARK  185  A    between atoms: _461  and  _462
REMARK  186  A    between atoms: _462  and  _463
REMARK  187  A    between atoms: _463  and  _464
REMARK  188  A    between atoms: _473  and  _475
REMARK  189  A    between atoms: _475  and  _476
REMARK  190  A    between atoms: _475  and  _478
REMARK  191  A    between atoms: _478  and  _479
REMARK  192  A    between atoms: _484  and  _486
REMARK  193  A    between atoms: _486  and  _487
REMARK  194  A    between atoms: _486  and  _489
REMARK  195  A    between atoms: _489  and  _490
REMARK  196  A    between atoms: _490  and  _491
REMARK  197  A    between atoms: _491  and  _492
REMARK  198  A    between atoms: _501  and  _503
REMARK  199  A    between atoms: _503  and  _504
REMARK  200  A    between atoms: _503  and  _506
REMARK  201  A    between atoms: _506  and  _507
REMARK  202  A    between atoms: _507  and  _508
REMARK  203  A    between atoms: _508  and  _509
REMARK  204  A    between atoms: _518  and  _520
REMARK  205  A    between atoms: _520  and  _521
REMARK  206  A    between atoms: _520  and  _523
REMARK  207  A    between atoms: _523  and  _524
REMARK  208  A    between atoms: _527  and  _529
REMARK  209  A    between atoms: _529  and  _530
REMARK  210  A    between atoms: _529  and  _532
REMARK  211  A    between atoms: _532  and  _533
REMARK  212  A    between atoms: _536  and  _538
REMARK  213  A    between atoms: _538  and  _539
REMARK  214  A    between atoms: _538  and  _541
REMARK  215  A    between atoms: _541  and  _542
REMARK                            x       y       z     vdW  Elec       q    Type
REMARK                         _______ _______ _______ _____ _____    ______ ____
ROOT
ATOM      1  O   HOH     1      27.125   6.659   3.624  0.00  0.00    +0.000 OA
ENDROOT
TORSDOF 0
REMARK  Name = ../refined-set-2016/3iue/3iue_pocket.pdb
REMARK  215 active torsions:
REMARK  status: ('A' for Active; 'I' for Inactive)
REMARK    1  A    between atoms: _1  and  _3
REMARK    2  A    between atoms: _3  and  _4
REMARK    3  A    between atoms: _3  and  _6
REMARK    4  A    between atoms: _10  and  _11
REMARK    5  A    between atoms: _16  and  _18
REMARK    6  A    between atoms: _18  and  _19
REMARK    7  A    between atoms: _18  and  _21
REMARK    8  A    between atoms: _21  and  _22
REMARK    9  A    between atoms: _25  and  _27
REMARK   10  A    between atoms: _27  and  _28
REMARK   11  A    between atoms: _27  and  _30
REMARK   12  A    between atoms: _30  and  _31
REMARK   13  A    between atoms: _31  and  _32
REMARK   14  A    between atoms: _34  and  _36
REMARK   15  A    between atoms: _36  and  _37
REMARK   16  A    between atoms: _39  and  _41
REMARK   17  A    between atoms: _41  and  _42
REMARK   18  A    between atoms: _45  and  _47
REMARK   19  A    between atoms: _47  and  _48
REMARK   20  A    between atoms: _47  and  _50
REMARK   21  A    between atoms: _50  and  _51
REMARK   22  A    between atoms: _54  and  _56
REMARK   23  A    between atoms: _56  and  _57
REMARK   24  A    between atoms: _56  and  _59
REMARK   25  A    between atoms: _59  and  _60
REMARK   26  A    between atoms: _65  and  _67
REMARK   27  A    between atoms: _67  and  _68
REMARK   28  A    between atoms: _67  and  _70
REMARK   29  A    between atoms: _70  and  _71
REMARK   30  A    between atoms: _71  and  _72
REMARK   31  A    between atoms: _75  and  _77
REMARK   32  A    between atoms: _77  and  _78
REMARK   33  A    between atoms: _80  and  _82
REMARK   34  A    between atoms: _82  and  _83
REMARK   35  A    between atoms: _82  and  _85
REMARK   36  A    between atoms: _85  and  _86
REMARK   37  A    between atoms: _91  and  _93
REMARK   38  A    between atoms: _93  and  _94
REMARK   39  A    between atoms: _93  and  _96
REMARK   40  A    between atoms: _96  and  _97
REMARK   41  A    between atoms: _100  and  _102
REMARK   42  A    between atoms: _102  and  _103
REMARK   43  A    between atoms: _106  and  _108
REMARK   44  A    between atoms: _108  and  _109
REMARK   45  A    between atoms: _108  and  _111
REMARK   46  A    between atoms: _111  and  _112
REMARK   47  A    between atoms: _115  and  _117
REMARK   48  A    between atoms: _117  and  _118
REMARK   49  A    between atoms: _117  and  _120
REMARK   50  A    between atoms: _123  and  _125
REMARK   51  A    between atoms: _125  and  _126
REMARK   52  A    between atoms: _125  and  _128
REMARK   53  A    between atoms: _128  and  _129
REMARK   54  A    between atoms: _131  and  _133
REMARK   55  A    between atoms: _133  and  _134
REMARK   56  A    between atoms: _133  and  _136
REMARK   57  A    between atoms: _136  and  _137
REMARK   58  A    between atoms: _140  and  _142
REMARK   59  A    between atoms: _142  and  _143
REMARK   60  A    between atoms: _142  and  _145
REMARK   61  A    between atoms: _145  and  _146
REMARK   62  A    between atoms: _152  and  _154
REMARK   63  A    between atoms: _154  and  _155
REMARK   64  A    between atoms: _154  and  _157
REMARK   65  A    between atoms: _157  and  _158
REMARK   66  A    between atoms: _163  and  _165
REMARK   67  A    between atoms: _165  and  _166
REMARK   68  A    between atoms: _165  and  _168
REMARK   69  A    between atoms: _168  and  _169
REMARK   70  A    between atoms: _169  and  _170
REMARK   71  A    between atoms: _175  and  _177
REMARK   72  A    between atoms: _177  and  _178
REMARK   73  A    between atoms: _177  and  _180
REMARK   74  A    between atoms: _180  and  _181
REMARK   75  A    between atoms: _187  and  _189
REMARK   76  A    between atoms: _189  and  _190
REMARK   77  A    between atoms: _189  and  _192
REMARK   78  A    between atoms: _192  and  _193
REMARK   79  A    between atoms: _198  and  _199
REMARK   80  A    between atoms: _202  and  _203
REMARK   81  A    between atoms: _208  and  _210
REMARK   82  A    between atoms: _210  and  _211
REMARK   83  A    between atoms: _210  and  _213
REMARK   84  A    between atoms: _213  and  _214
REMARK   85  A    between atoms: _214  and  _215
REMARK   86  A    between atoms: _218  and  _220
REMARK   87  A    between atoms: _220  and  _221
REMARK   88  A    between atoms: _220  and  _223
REMARK   89  A    between atoms: _223  and  _224
REMARK   90  A    between atoms: _229  and  _231
REMARK   91  A    between atoms: _231  and  _232
REMARK   92  A    between atoms: _231  and  _234
REMARK   93  A    between atoms: _234  and  _235
REMARK   94  A    between atoms: _241  and  _243
REMARK   95  A    between atoms: _243  and  _244
REMARK   96  A    between atoms: _243  and  _246
REMARK   97  A    between atoms: _249  and  _251
REMARK   98  A    between atoms: _251  and  _252
REMARK   99  A    between atoms: _251  and  _254
REMARK  100  A    between atoms: _257  and  _259
REMARK  101  A    between atoms: _259  and  _260
REMARK  102  A    between atoms: _259  and  _262
REMARK  103  A    between atoms: _262  and  _263
REMARK  104  A    between atoms: _269  and  _271
REMARK  105  A    between atoms: _271  and  _272
REMARK  106  A    between atoms: _271  and  _274
REMARK  107  A    between atoms: _274  and  _275
REMARK  108  A    between atoms: _281  and  _283
REMARK  109  A    between atoms: _283  and  _284
REMARK  110  A    between atoms: _286  and  _288
REMARK  111  A    between atoms: _288  and  _289
REMARK  112  A    between atoms: _288  and  _291
REMARK  113  A    between atoms: _291  and  _292
REMARK  114  A    between atoms: _292  and  _293
REMARK  115  A    between atoms: _296  and  _298
REMARK  116  A    between atoms: _298  and  _299
REMARK  117  A    between atoms: _298  and  _301
REMARK  118  A    between atoms: _301  and  _302
REMARK  119  A    between atoms: _302  and  _303
REMARK  120  A    between atoms: _303  and  _304
REMARK  121  A    between atoms: _304  and  _305
REMARK  122  A    between atoms: _309  and  _311
REMARK  123  A    between atoms: _311  and  _312
REMARK  124  A    between atoms: _311  and  _314
REMARK  125  A    between atoms: _314  and  _315
REMARK  126  A    between atoms: _318  and  _320
REMARK  127  A    between atoms: _320  and  _321
REMARK  128  A    between atoms: _320  and  _323
REMARK  129  A    between atoms: _323  and  _324
REMARK  130  A    between atoms: _329  and  _330
REMARK  131  A    between atoms: _332  and  _334
REMARK  132  A    between atoms: _334  and  _335
REMARK  133  A    between atoms: _334  and  _337
REMARK  134  A    between atoms: _337  and  _338
REMARK  135  A    between atoms: _338  and  _339
REMARK  136  A    between atoms: _344  and  _346
REMARK  137  A    between atoms: _346  and  _347
REMARK  138  A    between atoms: _346  and  _349
REMARK  139  A    between atoms: _349  and  _350
REMARK  140  A    between atoms: _353  and  _355
REMARK  141  A    between atoms: _355  and  _356
REMARK  142  A    between atoms: _355  and  _358
REMARK  143  A    between atoms: _358  and  _359
REMARK  144  A    between atoms: _362  and  _364
REMARK  145  A    between atoms: _364  and  _365
REMARK  146  A    between atoms: _367  and  _369
REMARK  147  A    between atoms: _369  and  _370
REMARK  148  A    between atoms: _369  and  _372
REMARK  149  A    between atoms: _376  and  _377
REMARK  150  A    between atoms: _382  and  _384
REMARK  151  A    between atoms: _384  and  _385
REMARK  152  A    between atoms: _384  and  _387
REMARK  153  A    between atoms: _387  and  _388
REMARK  154  A    between atoms: _391  and  _393
REMARK  155  A    between atoms: _393  and  _394
REMARK  156  A    between atoms: _393  and  _396
REMARK  157  A    between atoms: _399  and  _401
REMARK  158  A    between atoms: _401  and  _402
REMARK  159  A    between atoms: _401  and  _404
REMARK  160  A    between atoms: _404  and  _405
REMARK  161  A    between atoms: _405  and  _406
REMARK  162  A    between atoms: _406  and  _407
REMARK  163  A    between atoms: _416  and  _418
REMARK  164  A    between atoms: _418  and  _419
REMARK  165  A    between atoms: _418  and  _421
REMARK  166  A    between atoms: _421  and  _422
REMARK  167  A    between atoms: _425  and  _427
REMARK  168  A    between atoms: _427  and  _428
REMARK  169  A    between atoms: _431  and  _433
REMARK  170  A    between atoms: _433  and  _434
REMARK  171  A    between atoms: _433  and  _436
REMARK  172  A    between atoms: _436  and  _437
REMARK  173  A    between atoms: _437  and  _438
REMARK  174  A    between atoms: _440  and  _442
REMARK  175  A    between atoms: _442  and  _443
REMARK  176  A    between atoms: _442  and  _445
REMARK  177  A    between atoms: _445  and  _446
REMARK  178  A    between atoms: _448  and  _450
REMARK  179  A    between atoms: _450  and  _451
REMARK  180  A    between atoms: _450  and  _453
REMARK  181  A    between atoms: _453  and  _454
REMARK  182  A    between atoms: _456  and  _458
REMARK  183  A    between atoms: _458  and  _459
REMARK  184  A    between atoms: _458  and  _461
REMARK  185  A    between atoms: _461  and  _462
REMARK  186  A    between atoms: _462  and  _463
REMARK  187  A    between atoms: _463  and  _464
REMARK  188  A    between atoms: _473  and  _475
REMARK  189  A    between atoms: _475  and  _476
REMARK  190  A    between atoms: _475  and  _478
REMARK  191  A    between atoms: _478  and  _479
REMARK  192  A    between atoms: _484  and  _486
REMARK  193  A    between atoms: _486  and  _487
REMARK  194  A    between atoms: _486  and  _489
REMARK  195  A    between atoms: _489  and  _490
REMARK  196  A    between atoms: _490  and  _491
REMARK  197  A    between atoms: _491  and  _492
REMARK  198  A    between atoms: _501  and  _503
REMARK  199  A    between atoms: _503  and  _504
REMARK  200  A    between atoms: _503  and  _506
REMARK  201  A    between atoms: _506  and  _507
REMARK  202  A    between atoms: _507  and  _508
REMARK  203  A    between atoms: _508  and  _509
REMARK  204  A    between atoms: _518  and  _520
REMARK  205  A    between atoms: _520  and  _521
REMARK  206  A    between atoms: _520  and  _523
REMARK  207  A    between atoms: _523  and  _524
REMARK  208  A    between atoms: _527  and  _529
REMARK  209  A    between atoms: _529  and  _530
REMARK  210  A    between atoms: _529  and  _532
REMARK  211  A    between atoms: _532  and  _533
REMARK  212  A    between atoms: _536  and  _538
REMARK  213  A    between atoms: _538  and  _539
REMARK  214  A    between atoms: _538  and  _541
REMARK  215  A    between atoms: _541  and  _542
REMARK                            x       y       z     vdW  Elec       q    Type
REMARK                         _______ _______ _______ _____ _____    ______ ____
ROOT
ATOM      1  O   HOH     1      19.484   8.908   1.451  0.00  0.00    +0.000 OA
ENDROOT
TORSDOF 0
REMARK  Name = ../refined-set-2016/3iue/3iue_pocket.pdb
REMARK  215 active torsions:
REMARK  status: ('A' for Active; 'I' for Inactive)
REMARK    1  A    between atoms: _1  and  _3
REMARK    2  A    between atoms: _3  and  _4
REMARK    3  A    between atoms: _3  and  _6
REMARK    4  A    between atoms: _10  and  _11
REMARK    5  A    between atoms: _16  and  _18
REMARK    6  A    between atoms: _18  and  _19
REMARK    7  A    between atoms: _18  and  _21
REMARK    8  A    between atoms: _21  and  _22
REMARK    9  A    between atoms: _25  and  _27
REMARK   10  A    between atoms: _27  and  _28
REMARK   11  A    between atoms: _27  and  _30
REMARK   12  A    between atoms: _30  and  _31
REMARK   13  A    between atoms: _31  and  _32
REMARK   14  A    between atoms: _34  and  _36
REMARK   15  A    between atoms: _36  and  _37
REMARK   16  A    between atoms: _39  and  _41
REMARK   17  A    between atoms: _41  and  _42
REMARK   18  A    between atoms: _45  and  _47
REMARK   19  A    between atoms: _47  and  _48
REMARK   20  A    between atoms: _47  and  _50
REMARK   21  A    between atoms: _50  and  _51
REMARK   22  A    between atoms: _54  and  _56
REMARK   23  A    between atoms: _56  and  _57
REMARK   24  A    between atoms: _56  and  _59
REMARK   25  A    between atoms: _59  and  _60
REMARK   26  A    between atoms: _65  and  _67
REMARK   27  A    between atoms: _67  and  _68
REMARK   28  A    between atoms: _67  and  _70
REMARK   29  A    between atoms: _70  and  _71
REMARK   30  A    between atoms: _71  and  _72
REMARK   31  A    between atoms: _75  and  _77
REMARK   32  A    between atoms: _77  and  _78
REMARK   33  A    between atoms: _80  and  _82
REMARK   34  A    between atoms: _82  and  _83
REMARK   35  A    between atoms: _82  and  _85
REMARK   36  A    between atoms: _85  and  _86
REMARK   37  A    between atoms: _91  and  _93
REMARK   38  A    between atoms: _93  and  _94
REMARK   39  A    between atoms: _93  and  _96
REMARK   40  A    between atoms: _96  and  _97
REMARK   41  A    between atoms: _100  and  _102
REMARK   42  A    between atoms: _102  and  _103
REMARK   43  A    between atoms: _106  and  _108
REMARK   44  A    between atoms: _108  and  _109
REMARK   45  A    between atoms: _108  and  _111
REMARK   46  A    between atoms: _111  and  _112
REMARK   47  A    between atoms: _115  and  _117
REMARK   48  A    between atoms: _117  and  _118
REMARK   49  A    between atoms: _117  and  _120
REMARK   50  A    between atoms: _123  and  _125
REMARK   51  A    between atoms: _125  and  _126
REMARK   52  A    between atoms: _125  and  _128
REMARK   53  A    between atoms: _128  and  _129
REMARK   54  A    between atoms: _131  and  _133
REMARK   55  A    between atoms: _133  and  _134
REMARK   56  A    between atoms: _133  and  _136
REMARK   57  A    between atoms: _136  and  _137
REMARK   58  A    between atoms: _140  and  _142
REMARK   59  A    between atoms: _142  and  _143
REMARK   60  A    between atoms: _142  and  _145
REMARK   61  A    between atoms: _145  and  _146
REMARK   62  A    between atoms: _152  and  _154
REMARK   63  A    between atoms: _154  and  _155
REMARK   64  A    between atoms: _154  and  _157
REMARK   65  A    between atoms: _157  and  _158
REMARK   66  A    between atoms: _163  and  _165
REMARK   67  A    between atoms: _165  and  _166
REMARK   68  A    between atoms: _165  and  _168
REMARK   69  A    between atoms: _168  and  _169
REMARK   70  A    between atoms: _169  and  _170
REMARK   71  A    between atoms: _175  and  _177
REMARK   72  A    between atoms: _177  and  _178
REMARK   73  A    between atoms: _177  and  _180
REMARK   74  A    between atoms: _180  and  _181
REMARK   75  A    between atoms: _187  and  _189
REMARK   76  A    between atoms: _189  and  _190
REMARK   77  A    between atoms: _189  and  _192
REMARK   78  A    between atoms: _192  and  _193
REMARK   79  A    between atoms: _198  and  _199
REMARK   80  A    between atoms: _202  and  _203
REMARK   81  A    between atoms: _208  and  _210
REMARK   82  A    between atoms: _210  and  _211
REMARK   83  A    between atoms: _210  and  _213
REMARK   84  A    between atoms: _213  and  _214
REMARK   85  A    between atoms: _214  and  _215
REMARK   86  A    between atoms: _218  and  _220
REMARK   87  A    between atoms: _220  and  _221
REMARK   88  A    between atoms: _220  and  _223
REMARK   89  A    between atoms: _223  and  _224
REMARK   90  A    between atoms: _229  and  _231
REMARK   91  A    between atoms: _231  and  _232
REMARK   92  A    between atoms: _231  and  _234
REMARK   93  A    between atoms: _234  and  _235
REMARK   94  A    between atoms: _241  and  _243
REMARK   95  A    between atoms: _243  and  _244
REMARK   96  A    between atoms: _243  and  _246
REMARK   97  A    between atoms: _249  and  _251
REMARK   98  A    between atoms: _251  and  _252
REMARK   99  A    between atoms: _251  and  _254
REMARK  100  A    between atoms: _257  and  _259
REMARK  101  A    between atoms: _259  and  _260
REMARK  102  A    between atoms: _259  and  _262
REMARK  103  A    between atoms: _262  and  _263
REMARK  104  A    between atoms: _269  and  _271
REMARK  105  A    between atoms: _271  and  _272
REMARK  106  A    between atoms: _271  and  _274
REMARK  107  A    between atoms: _274  and  _275
REMARK  108  A    between atoms: _281  and  _283
REMARK  109  A    between atoms: _283  and  _284
REMARK  110  A    between atoms: _286  and  _288
REMARK  111  A    between atoms: _288  and  _289
REMARK  112  A    between atoms: _288  and  _291
REMARK  113  A    between atoms: _291  and  _292
REMARK  114  A    between atoms: _292  and  _293
REMARK  115  A    between atoms: _296  and  _298
REMARK  116  A    between atoms: _298  and  _299
REMARK  117  A    between atoms: _298  and  _301
REMARK  118  A    between atoms: _301  and  _302
REMARK  119  A    between atoms: _302  and  _303
REMARK  120  A    between atoms: _303  and  _304
REMARK  121  A    between atoms: _304  and  _305
REMARK  122  A    between atoms: _309  and  _311
REMARK  123  A    between atoms: _311  and  _312
REMARK  124  A    between atoms: _311  and  _314
REMARK  125  A    between atoms: _314  and  _315
REMARK  126  A    between atoms: _318  and  _320
REMARK  127  A    between atoms: _320  and  _321
REMARK  128  A    between atoms: _320  and  _323
REMARK  129  A    between atoms: _323  and  _324
REMARK  130  A    between atoms: _329  and  _330
REMARK  131  A    between atoms: _332  and  _334
REMARK  132  A    between atoms: _334  and  _335
REMARK  133  A    between atoms: _334  and  _337
REMARK  134  A    between atoms: _337  and  _338
REMARK  135  A    between atoms: _338  and  _339
REMARK  136  A    between atoms: _344  and  _346
REMARK  137  A    between atoms: _346  and  _347
REMARK  138  A    between atoms: _346  and  _349
REMARK  139  A    between atoms: _349  and  _350
REMARK  140  A    between atoms: _353  and  _355
REMARK  141  A    between atoms: _355  and  _356
REMARK  142  A    between atoms: _355  and  _358
REMARK  143  A    between atoms: _358  and  _359
REMARK  144  A    between atoms: _362  and  _364
REMARK  145  A    between atoms: _364  and  _365
REMARK  146  A    between atoms: _367  and  _369
REMARK  147  A    between atoms: _369  and  _370
REMARK  148  A    between atoms: _369  and  _372
REMARK  149  A    between atoms: _376  and  _377
REMARK  150  A    between atoms: _382  and  _384
REMARK  151  A    between atoms: _384  and  _385
REMARK  152  A    between atoms: _384  and  _387
REMARK  153  A    between atoms: _387  and  _388
REMARK  154  A    between atoms: _391  and  _393
REMARK  155  A    between atoms: _393  and  _394
REMARK  156  A    between atoms: _393  and  _396
REMARK  157  A    between atoms: _399  and  _401
REMARK  158  A    between atoms: _401  and  _402
REMARK  159  A    between atoms: _401  and  _404
REMARK  160  A    between atoms: _404  and  _405
REMARK  161  A    between atoms: _405  and  _406
REMARK  162  A    between atoms: _406  and  _407
REMARK  163  A    between atoms: _416  and  _418
REMARK  164  A    between atoms: _418  and  _419
REMARK  165  A    between atoms: _418  and  _421
REMARK  166  A    between atoms: _421  and  _422
REMARK  167  A    between atoms: _425  and  _427
REMARK  168  A    between atoms: _427  and  _428
REMARK  169  A    between atoms: _431  and  _433
REMARK  170  A    between atoms: _433  and  _434
REMARK  171  A    between atoms: _433  and  _436
REMARK  172  A    between atoms: _436  and  _437
REMARK  173  A    between atoms: _437  and  _438
REMARK  174  A    between atoms: _440  and  _442
REMARK  175  A    between atoms: _442  and  _443
REMARK  176  A    between atoms: _442  and  _445
REMARK  177  A    between atoms: _445  and  _446
REMARK  178  A    between atoms: _448  and  _450
REMARK  179  A    between atoms: _450  and  _451
REMARK  180  A    between atoms: _450  and  _453
REMARK  181  A    between atoms: _453  and  _454
REMARK  182  A    between atoms: _456  and  _458
REMARK  183  A    between atoms: _458  and  _459
REMARK  184  A    between atoms: _458  and  _461
REMARK  185  A    between atoms: _461  and  _462
REMARK  186  A    between atoms: _462  and  _463
REMARK  187  A    between atoms: _463  and  _464
REMARK  188  A    between atoms: _473  and  _475
REMARK  189  A    between atoms: _475  and  _476
REMARK  190  A    between atoms: _475  and  _478
REMARK  191  A    between atoms: _478  and  _479
REMARK  192  A    between atoms: _484  and  _486
REMARK  193  A    between atoms: _486  and  _487
REMARK  194  A    between atoms: _486  and  _489
REMARK  195  A    between atoms: _489  and  _490
REMARK  196  A    between atoms: _490  and  _491
REMARK  197  A    between atoms: _491  and  _492
REMARK  198  A    between atoms: _501  and  _503
REMARK  199  A    between atoms: _503  and  _504
REMARK  200  A    between atoms: _503  and  _506
REMARK  201  A    between atoms: _506  and  _507
REMARK  202  A    between atoms: _507  and  _508
REMARK  203  A    between atoms: _508  and  _509
REMARK  204  A    between atoms: _518  and  _520
REMARK  205  A    between atoms: _520  and  _521
REMARK  206  A    between atoms: _520  and  _523
REMARK  207  A    between atoms: _523  and  _524
REMARK  208  A    between atoms: _527  and  _529
REMARK  209  A    between atoms: _529  and  _530
REMARK  210  A    between atoms: _529  and  _532
REMARK  211  A    between atoms: _532  and  _533
REMARK  212  A    between atoms: _536  and  _538
REMARK  213  A    between atoms: _538  and  _539
REMARK  214  A    between atoms: _538  and  _541
REMARK  215  A    between atoms: _541  and  _542
REMARK                            x       y       z     vdW  Elec       q    Type
REMARK                         _______ _______ _______ _____ _____    ______ ____
ROOT
ATOM      1  O   HOH     1      17.947  13.248   1.701  0.00  0.00    +0.000 OA
ENDROOT
TORSDOF 0
REMARK  Name = ../refined-set-2016/3iue/3iue_pocket.pdb
REMARK  215 active torsions:
REMARK  status: ('A' for Active; 'I' for Inactive)
REMARK    1  A    between atoms: _1  and  _3
REMARK    2  A    between atoms: _3  and  _4
REMARK    3  A    between atoms: _3  and  _6
REMARK    4  A    between atoms: _10  and  _11
REMARK    5  A    between atoms: _16  and  _18
REMARK    6  A    between atoms: _18  and  _19
REMARK    7  A    between atoms: _18  and  _21
REMARK    8  A    between atoms: _21  and  _22
REMARK    9  A    between atoms: _25  and  _27
REMARK   10  A    between atoms: _27  and  _28
REMARK   11  A    between atoms: _27  and  _30
REMARK   12  A    between atoms: _30  and  _31
REMARK   13  A    between atoms: _31  and  _32
REMARK   14  A    between atoms: _34  and  _36
REMARK   15  A    between atoms: _36  and  _37
REMARK   16  A    between atoms: _39  and  _41
REMARK   17  A    between atoms: _41  and  _42
REMARK   18  A    between atoms: _45  and  _47
REMARK   19  A    between atoms: _47  and  _48
REMARK   20  A    between atoms: _47  and  _50
REMARK   21  A    between atoms: _50  and  _51
REMARK   22  A    between atoms: _54  and  _56
REMARK   23  A    between atoms: _56  and  _57
REMARK   24  A    between atoms: _56  and  _59
REMARK   25  A    between atoms: _59  and  _60
REMARK   26  A    between atoms: _65  and  _67
REMARK   27  A    between atoms: _67  and  _68
REMARK   28  A    between atoms: _67  and  _70
REMARK   29  A    between atoms: _70  and  _71
REMARK   30  A    between atoms: _71  and  _72
REMARK   31  A    between atoms: _75  and  _77
REMARK   32  A    between atoms: _77  and  _78
REMARK   33  A    between atoms: _80  and  _82
REMARK   34  A    between atoms: _82  and  _83
REMARK   35  A    between atoms: _82  and  _85
REMARK   36  A    between atoms: _85  and  _86
REMARK   37  A    between atoms: _91  and  _93
REMARK   38  A    between atoms: _93  and  _94
REMARK   39  A    between atoms: _93  and  _96
REMARK   40  A    between atoms: _96  and  _97
REMARK   41  A    between atoms: _100  and  _102
REMARK   42  A    between atoms: _102  and  _103
REMARK   43  A    between atoms: _106  and  _108
REMARK   44  A    between atoms: _108  and  _109
REMARK   45  A    between atoms: _108  and  _111
REMARK   46  A    between atoms: _111  and  _112
REMARK   47  A    between atoms: _115  and  _117
REMARK   48  A    between atoms: _117  and  _118
REMARK   49  A    between atoms: _117  and  _120
REMARK   50  A    between atoms: _123  and  _125
REMARK   51  A    between atoms: _125  and  _126
REMARK   52  A    between atoms: _125  and  _128
REMARK   53  A    between atoms: _128  and  _129
REMARK   54  A    between atoms: _131  and  _133
REMARK   55  A    between atoms: _133  and  _134
REMARK   56  A    between atoms: _133  and  _136
REMARK   57  A    between atoms: _136  and  _137
REMARK   58  A    between atoms: _140  and  _142
REMARK   59  A    between atoms: _142  and  _143
REMARK   60  A    between atoms: _142  and  _145
REMARK   61  A    between atoms: _145  and  _146
REMARK   62  A    between atoms: _152  and  _154
REMARK   63  A    between atoms: _154  and  _155
REMARK   64  A    between atoms: _154  and  _157
REMARK   65  A    between atoms: _157  and  _158
REMARK   66  A    between atoms: _163  and  _165
REMARK   67  A    between atoms: _165  and  _166
REMARK   68  A    between atoms: _165  and  _168
REMARK   69  A    between atoms: _168  and  _169
REMARK   70  A    between atoms: _169  and  _170
REMARK   71  A    between atoms: _175  and  _177
REMARK   72  A    between atoms: _177  and  _178
REMARK   73  A    between atoms: _177  and  _180
REMARK   74  A    between atoms: _180  and  _181
REMARK   75  A    between atoms: _187  and  _189
REMARK   76  A    between atoms: _189  and  _190
REMARK   77  A    between atoms: _189  and  _192
REMARK   78  A    between atoms: _192  and  _193
REMARK   79  A    between atoms: _198  and  _199
REMARK   80  A    between atoms: _202  and  _203
REMARK   81  A    between atoms: _208  and  _210
REMARK   82  A    between atoms: _210  and  _211
REMARK   83  A    between atoms: _210  and  _213
REMARK   84  A    between atoms: _213  and  _214
REMARK   85  A    between atoms: _214  and  _215
REMARK   86  A    between atoms: _218  and  _220
REMARK   87  A    between atoms: _220  and  _221
REMARK   88  A    between atoms: _220  and  _223
REMARK   89  A    between atoms: _223  and  _224
REMARK   90  A    between atoms: _229  and  _231
REMARK   91  A    between atoms: _231  and  _232
REMARK   92  A    between atoms: _231  and  _234
REMARK   93  A    between atoms: _234  and  _235
REMARK   94  A    between atoms: _241  and  _243
REMARK   95  A    between atoms: _243  and  _244
REMARK   96  A    between atoms: _243  and  _246
REMARK   97  A    between atoms: _249  and  _251
REMARK   98  A    between atoms: _251  and  _252
REMARK   99  A    between atoms: _251  and  _254
REMARK  100  A    between atoms: _257  and  _259
REMARK  101  A    between atoms: _259  and  _260
REMARK  102  A    between atoms: _259  and  _262
REMARK  103  A    between atoms: _262  and  _263
REMARK  104  A    between atoms: _269  and  _271
REMARK  105  A    between atoms: _271  and  _272
REMARK  106  A    between atoms: _271  and  _274
REMARK  107  A    between atoms: _274  and  _275
REMARK  108  A    between atoms: _281  and  _283
REMARK  109  A    between atoms: _283  and  _284
REMARK  110  A    between atoms: _286  and  _288
REMARK  111  A    between atoms: _288  and  _289
REMARK  112  A    between atoms: _288  and  _291
REMARK  113  A    between atoms: _291  and  _292
REMARK  114  A    between atoms: _292  and  _293
REMARK  115  A    between atoms: _296  and  _298
REMARK  116  A    between atoms: _298  and  _299
REMARK  117  A    between atoms: _298  and  _301
REMARK  118  A    between atoms: _301  and  _302
REMARK  119  A    between atoms: _302  and  _303
REMARK  120  A    between atoms: _303  and  _304
REMARK  121  A    between atoms: _304  and  _305
REMARK  122  A    between atoms: _309  and  _311
REMARK  123  A    between atoms: _311  and  _312
REMARK  124  A    between atoms: _311  and  _314
REMARK  125  A    between atoms: _314  and  _315
REMARK  126  A    between atoms: _318  and  _320
REMARK  127  A    between atoms: _320  and  _321
REMARK  128  A    between atoms: _320  and  _323
REMARK  129  A    between atoms: _323  and  _324
REMARK  130  A    between atoms: _329  and  _330
REMARK  131  A    between atoms: _332  and  _334
REMARK  132  A    between atoms: _334  and  _335
REMARK  133  A    between atoms: _334  and  _337
REMARK  134  A    between atoms: _337  and  _338
REMARK  135  A    between atoms: _338  and  _339
REMARK  136  A    between atoms: _344  and  _346
REMARK  137  A    between atoms: _346  and  _347
REMARK  138  A    between atoms: _346  and  _349
REMARK  139  A    between atoms: _349  and  _350
REMARK  140  A    between atoms: _353  and  _355
REMARK  141  A    between atoms: _355  and  _356
REMARK  142  A    between atoms: _355  and  _358
REMARK  143  A    between atoms: _358  and  _359
REMARK  144  A    between atoms: _362  and  _364
REMARK  145  A    between atoms: _364  and  _365
REMARK  146  A    between atoms: _367  and  _369
REMARK  147  A    between atoms: _369  and  _370
REMARK  148  A    between atoms: _369  and  _372
REMARK  149  A    between atoms: _376  and  _377
REMARK  150  A    between atoms: _382  and  _384
REMARK  151  A    between atoms: _384  and  _385
REMARK  152  A    between atoms: _384  and  _387
REMARK  153  A    between atoms: _387  and  _388
REMARK  154  A    between atoms: _391  and  _393
REMARK  155  A    between atoms: _393  and  _394
REMARK  156  A    between atoms: _393  and  _396
REMARK  157  A    between atoms: _399  and  _401
REMARK  158  A    between atoms: _401  and  _402
REMARK  159  A    between atoms: _401  and  _404
REMARK  160  A    between atoms: _404  and  _405
REMARK  161  A    between atoms: _405  and  _406
REMARK  162  A    between atoms: _406  and  _407
REMARK  163  A    between atoms: _416  and  _418
REMARK  164  A    between atoms: _418  and  _419
REMARK  165  A    between atoms: _418  and  _421
REMARK  166  A    between atoms: _421  and  _422
REMARK  167  A    between atoms: _425  and  _427
REMARK  168  A    between atoms: _427  and  _428
REMARK  169  A    between atoms: _431  and  _433
REMARK  170  A    between atoms: _433  and  _434
REMARK  171  A    between atoms: _433  and  _436
REMARK  172  A    between atoms: _436  and  _437
REMARK  173  A    between atoms: _437  and  _438
REMARK  174  A    between atoms: _440  and  _442
REMARK  175  A    between atoms: _442  and  _443
REMARK  176  A    between atoms: _442  and  _445
REMARK  177  A    between atoms: _445  and  _446
REMARK  178  A    between atoms: _448  and  _450
REMARK  179  A    between atoms: _450  and  _451
REMARK  180  A    between atoms: _450  and  _453
REMARK  181  A    between atoms: _453  and  _454
REMARK  182  A    between atoms: _456  and  _458
REMARK  183  A    between atoms: _458  and  _459
REMARK  184  A    between atoms: _458  and  _461
REMARK  185  A    between atoms: _461  and  _462
REMARK  186  A    between atoms: _462  and  _463
REMARK  187  A    between atoms: _463  and  _464
REMARK  188  A    between atoms: _473  and  _475
REMARK  189  A    between atoms: _475  and  _476
REMARK  190  A    between atoms: _475  and  _478
REMARK  191  A    between atoms: _478  and  _479
REMARK  192  A    between atoms: _484  and  _486
REMARK  193  A    between atoms: _486  and  _487
REMARK  194  A    between atoms: _486  and  _489
REMARK  195  A    between atoms: _489  and  _490
REMARK  196  A    between atoms: _490  and  _491
REMARK  197  A    between atoms: _491  and  _492
REMARK  198  A    between atoms: _501  and  _503
REMARK  199  A    between atoms: _503  and  _504
REMARK  200  A    between atoms: _503  and  _506
REMARK  201  A    between atoms: _506  and  _507
REMARK  202  A    between atoms: _507  and  _508
REMARK  203  A    between atoms: _508  and  _509
REMARK  204  A    between atoms: _518  and  _520
REMARK  205  A    between atoms: _520  and  _521
REMARK  206  A    between atoms: _520  and  _523
REMARK  207  A    between atoms: _523  and  _524
REMARK  208  A    between atoms: _527  and  _529
REMARK  209  A    between atoms: _529  and  _530
REMARK  210  A    between atoms: _529  and  _532
REMARK  211  A    between atoms: _532  and  _533
REMARK  212  A    between atoms: _536  and  _538
REMARK  213  A    between atoms: _538  and  _539
REMARK  214  A    between atoms: _538  and  _541
REMARK  215  A    between atoms: _541  and  _542
REMARK                            x       y       z     vdW  Elec       q    Type
REMARK                         _______ _______ _______ _____ _____    ______ ____
ROOT
ATOM      1  O   HOH     1      14.553   7.189   2.046  0.00  0.00    +0.000 OA
ENDROOT
TORSDOF 0
REMARK  Name = ../refined-set-2016/3iue/3iue_pocket.pdb
REMARK  215 active torsions:
REMARK  status: ('A' for Active; 'I' for Inactive)
REMARK    1  A    between atoms: _1  and  _3
REMARK    2  A    between atoms: _3  and  _4
REMARK    3  A    between atoms: _3  and  _6
REMARK    4  A    between atoms: _10  and  _11
REMARK    5  A    between atoms: _16  and  _18
REMARK    6  A    between atoms: _18  and  _19
REMARK    7  A    between atoms: _18  and  _21
REMARK    8  A    between atoms: _21  and  _22
REMARK    9  A    between atoms: _25  and  _27
REMARK   10  A    between atoms: _27  and  _28
REMARK   11  A    between atoms: _27  and  _30
REMARK   12  A    between atoms: _30  and  _31
REMARK   13  A    between atoms: _31  and  _32
REMARK   14  A    between atoms: _34  and  _36
REMARK   15  A    between atoms: _36  and  _37
REMARK   16  A    between atoms: _39  and  _41
REMARK   17  A    between atoms: _41  and  _42
REMARK   18  A    between atoms: _45  and  _47
REMARK   19  A    between atoms: _47  and  _48
REMARK   20  A    between atoms: _47  and  _50
REMARK   21  A    between atoms: _50  and  _51
REMARK   22  A    between atoms: _54  and  _56
REMARK   23  A    between atoms: _56  and  _57
REMARK   24  A    between atoms: _56  and  _59
REMARK   25  A    between atoms: _59  and  _60
REMARK   26  A    between atoms: _65  and  _67
REMARK   27  A    between atoms: _67  and  _68
REMARK   28  A    between atoms: _67  and  _70
REMARK   29  A    between atoms: _70  and  _71
REMARK   30  A    between atoms: _71  and  _72
REMARK   31  A    between atoms: _75  and  _77
REMARK   32  A    between atoms: _77  and  _78
REMARK   33  A    between atoms: _80  and  _82
REMARK   34  A    between atoms: _82  and  _83
REMARK   35  A    between atoms: _82  and  _85
REMARK   36  A    between atoms: _85  and  _86
REMARK   37  A    between atoms: _91  and  _93
REMARK   38  A    between atoms: _93  and  _94
REMARK   39  A    between atoms: _93  and  _96
REMARK   40  A    between atoms: _96  and  _97
REMARK   41  A    between atoms: _100  and  _102
REMARK   42  A    between atoms: _102  and  _103
REMARK   43  A    between atoms: _106  and  _108
REMARK   44  A    between atoms: _108  and  _109
REMARK   45  A    between atoms: _108  and  _111
REMARK   46  A    between atoms: _111  and  _112
REMARK   47  A    between atoms: _115  and  _117
REMARK   48  A    between atoms: _117  and  _118
REMARK   49  A    between atoms: _117  and  _120
REMARK   50  A    between atoms: _123  and  _125
REMARK   51  A    between atoms: _125  and  _126
REMARK   52  A    between atoms: _125  and  _128
REMARK   53  A    between atoms: _128  and  _129
REMARK   54  A    between atoms: _131  and  _133
REMARK   55  A    between atoms: _133  and  _134
REMARK   56  A    between atoms: _133  and  _136
REMARK   57  A    between atoms: _136  and  _137
REMARK   58  A    between atoms: _140  and  _142
REMARK   59  A    between atoms: _142  and  _143
REMARK   60  A    between atoms: _142  and  _145
REMARK   61  A    between atoms: _145  and  _146
REMARK   62  A    between atoms: _152  and  _154
REMARK   63  A    between atoms: _154  and  _155
REMARK   64  A    between atoms: _154  and  _157
REMARK   65  A    between atoms: _157  and  _158
REMARK   66  A    between atoms: _163  and  _165
REMARK   67  A    between atoms: _165  and  _166
REMARK   68  A    between atoms: _165  and  _168
REMARK   69  A    between atoms: _168  and  _169
REMARK   70  A    between atoms: _169  and  _170
REMARK   71  A    between atoms: _175  and  _177
REMARK   72  A    between atoms: _177  and  _178
REMARK   73  A    between atoms: _177  and  _180
REMARK   74  A    between atoms: _180  and  _181
REMARK   75  A    between atoms: _187  and  _189
REMARK   76  A    between atoms: _189  and  _190
REMARK   77  A    between atoms: _189  and  _192
REMARK   78  A    between atoms: _192  and  _193
REMARK   79  A    between atoms: _198  and  _199
REMARK   80  A    between atoms: _202  and  _203
REMARK   81  A    between atoms: _208  and  _210
REMARK   82  A    between atoms: _210  and  _211
REMARK   83  A    between atoms: _210  and  _213
REMARK   84  A    between atoms: _213  and  _214
REMARK   85  A    between atoms: _214  and  _215
REMARK   86  A    between atoms: _218  and  _220
REMARK   87  A    between atoms: _220  and  _221
REMARK   88  A    between atoms: _220  and  _223
REMARK   89  A    between atoms: _223  and  _224
REMARK   90  A    between atoms: _229  and  _231
REMARK   91  A    between atoms: _231  and  _232
REMARK   92  A    between atoms: _231  and  _234
REMARK   93  A    between atoms: _234  and  _235
REMARK   94  A    between atoms: _241  and  _243
REMARK   95  A    between atoms: _243  and  _244
REMARK   96  A    between atoms: _243  and  _246
REMARK   97  A    between atoms: _249  and  _251
REMARK   98  A    between atoms: _251  and  _252
REMARK   99  A    between atoms: _251  and  _254
REMARK  100  A    between atoms: _257  and  _259
REMARK  101  A    between atoms: _259  and  _260
REMARK  102  A    between atoms: _259  and  _262
REMARK  103  A    between atoms: _262  and  _263
REMARK  104  A    between atoms: _269  and  _271
REMARK  105  A    between atoms: _271  and  _272
REMARK  106  A    between atoms: _271  and  _274
REMARK  107  A    between atoms: _274  and  _275
REMARK  108  A    between atoms: _281  and  _283
REMARK  109  A    between atoms: _283  and  _284
REMARK  110  A    between atoms: _286  and  _288
REMARK  111  A    between atoms: _288  and  _289
REMARK  112  A    between atoms: _288  and  _291
REMARK  113  A    between atoms: _291  and  _292
REMARK  114  A    between atoms: _292  and  _293
REMARK  115  A    between atoms: _296  and  _298
REMARK  116  A    between atoms: _298  and  _299
REMARK  117  A    between atoms: _298  and  _301
REMARK  118  A    between atoms: _301  and  _302
REMARK  119  A    between atoms: _302  and  _303
REMARK  120  A    between atoms: _303  and  _304
REMARK  121  A    between atoms: _304  and  _305
REMARK  122  A    between atoms: _309  and  _311
REMARK  123  A    between atoms: _311  and  _312
REMARK  124  A    between atoms: _311  and  _314
REMARK  125  A    between atoms: _314  and  _315
REMARK  126  A    between atoms: _318  and  _320
REMARK  127  A    between atoms: _320  and  _321
REMARK  128  A    between atoms: _320  and  _323
REMARK  129  A    between atoms: _323  and  _324
REMARK  130  A    between atoms: _329  and  _330
REMARK  131  A    between atoms: _332  and  _334
REMARK  132  A    between atoms: _334  and  _335
REMARK  133  A    between atoms: _334  and  _337
REMARK  134  A    between atoms: _337  and  _338
REMARK  135  A    between atoms: _338  and  _339
REMARK  136  A    between atoms: _344  and  _346
REMARK  137  A    between atoms: _346  and  _347
REMARK  138  A    between atoms: _346  and  _349
REMARK  139  A    between atoms: _349  and  _350
REMARK  140  A    between atoms: _353  and  _355
REMARK  141  A    between atoms: _355  and  _356
REMARK  142  A    between atoms: _355  and  _358
REMARK  143  A    between atoms: _358  and  _359
REMARK  144  A    between atoms: _362  and  _364
REMARK  145  A    between atoms: _364  and  _365
REMARK  146  A    between atoms: _367  and  _369
REMARK  147  A    between atoms: _369  and  _370
REMARK  148  A    between atoms: _369  and  _372
REMARK  149  A    between atoms: _376  and  _377
REMARK  150  A    between atoms: _382  and  _384
REMARK  151  A    between atoms: _384  and  _385
REMARK  152  A    between atoms: _384  and  _387
REMARK  153  A    between atoms: _387  and  _388
REMARK  154  A    between atoms: _391  and  _393
REMARK  155  A    between atoms: _393  and  _394
REMARK  156  A    between atoms: _393  and  _396
REMARK  157  A    between atoms: _399  and  _401
REMARK  158  A    between atoms: _401  and  _402
REMARK  159  A    between atoms: _401  and  _404
REMARK  160  A    between atoms: _404  and  _405
REMARK  161  A    between atoms: _405  and  _406
REMARK  162  A    between atoms: _406  and  _407
REMARK  163  A    between atoms: _416  and  _418
REMARK  164  A    between atoms: _418  and  _419
REMARK  165  A    between atoms: _418  and  _421
REMARK  166  A    between atoms: _421  and  _422
REMARK  167  A    between atoms: _425  and  _427
REMARK  168  A    between atoms: _427  and  _428
REMARK  169  A    between atoms: _431  and  _433
REMARK  170  A    between atoms: _433  and  _434
REMARK  171  A    between atoms: _433  and  _436
REMARK  172  A    between atoms: _436  and  _437
REMARK  173  A    between atoms: _437  and  _438
REMARK  174  A    between atoms: _440  and  _442
REMARK  175  A    between atoms: _442  and  _443
REMARK  176  A    between atoms: _442  and  _445
REMARK  177  A    between atoms: _445  and  _446
REMARK  178  A    between atoms: _448  and  _450
REMARK  179  A    between atoms: _450  and  _451
REMARK  180  A    between atoms: _450  and  _453
REMARK  181  A    between atoms: _453  and  _454
REMARK  182  A    between atoms: _456  and  _458
REMARK  183  A    between atoms: _458  and  _459
REMARK  184  A    between atoms: _458  and  _461
REMARK  185  A    between atoms: _461  and  _462
REMARK  186  A    between atoms: _462  and  _463
REMARK  187  A    between atoms: _463  and  _464
REMARK  188  A    between atoms: _473  and  _475
REMARK  189  A    between atoms: _475  and  _476
REMARK  190  A    between atoms: _475  and  _478
REMARK  191  A    between atoms: _478  and  _479
REMARK  192  A    between atoms: _484  and  _486
REMARK  193  A    between atoms: _486  and  _487
REMARK  194  A    between atoms: _486  and  _489
REMARK  195  A    between atoms: _489  and  _490
REMARK  196  A    between atoms: _490  and  _491
REMARK  197  A    between atoms: _491  and  _492
REMARK  198  A    between atoms: _501  and  _503
REMARK  199  A    between atoms: _503  and  _504
REMARK  200  A    between atoms: _503  and  _506
REMARK  201  A    between atoms: _506  and  _507
REMARK  202  A    between atoms: _507  and  _508
REMARK  203  A    between atoms: _508  and  _509
REMARK  204  A    between atoms: _518  and  _520
REMARK  205  A    between atoms: _520  and  _521
REMARK  206  A    between atoms: _520  and  _523
REMARK  207  A    between atoms: _523  and  _524
REMARK  208  A    between atoms: _527  and  _529
REMARK  209  A    between atoms: _529  and  _530
REMARK  210  A    between atoms: _529  and  _532
REMARK  211  A    between atoms: _532  and  _533
REMARK  212  A    between atoms: _536  and  _538
REMARK  213  A    between atoms: _538  and  _539
REMARK  214  A    between atoms: _538  and  _541
REMARK  215  A    between atoms: _541  and  _542
REMARK                            x       y       z     vdW  Elec       q    Type
REMARK                         _______ _______ _______ _____ _____    ______ ____
ROOT
ATOM      1  O   HOH     1      24.975   6.798   8.914  0.00  0.00    +0.000 OA
ENDROOT
TORSDOF 0
REMARK  Name = ../refined-set-2016/3iue/3iue_pocket.pdb
REMARK  215 active torsions:
REMARK  status: ('A' for Active; 'I' for Inactive)
REMARK    1  A    between atoms: _1  and  _3
REMARK    2  A    between atoms: _3  and  _4
REMARK    3  A    between atoms: _3  and  _6
REMARK    4  A    between atoms: _10  and  _11
REMARK    5  A    between atoms: _16  and  _18
REMARK    6  A    between atoms: _18  and  _19
REMARK    7  A    between atoms: _18  and  _21
REMARK    8  A    between atoms: _21  and  _22
REMARK    9  A    between atoms: _25  and  _27
REMARK   10  A    between atoms: _27  and  _28
REMARK   11  A    between atoms: _27  and  _30
REMARK   12  A    between atoms: _30  and  _31
REMARK   13  A    between atoms: _31  and  _32
REMARK   14  A    between atoms: _34  and  _36
REMARK   15  A    between atoms: _36  and  _37
REMARK   16  A    between atoms: _39  and  _41
REMARK   17  A    between atoms: _41  and  _42
REMARK   18  A    between atoms: _45  and  _47
REMARK   19  A    between atoms: _47  and  _48
REMARK   20  A    between atoms: _47  and  _50
REMARK   21  A    between atoms: _50  and  _51
REMARK   22  A    between atoms: _54  and  _56
REMARK   23  A    between atoms: _56  and  _57
REMARK   24  A    between atoms: _56  and  _59
REMARK   25  A    between atoms: _59  and  _60
REMARK   26  A    between atoms: _65  and  _67
REMARK   27  A    between atoms: _67  and  _68
REMARK   28  A    between atoms: _67  and  _70
REMARK   29  A    between atoms: _70  and  _71
REMARK   30  A    between atoms: _71  and  _72
REMARK   31  A    between atoms: _75  and  _77
REMARK   32  A    between atoms: _77  and  _78
REMARK   33  A    between atoms: _80  and  _82
REMARK   34  A    between atoms: _82  and  _83
REMARK   35  A    between atoms: _82  and  _85
REMARK   36  A    between atoms: _85  and  _86
REMARK   37  A    between atoms: _91  and  _93
REMARK   38  A    between atoms: _93  and  _94
REMARK   39  A    between atoms: _93  and  _96
REMARK   40  A    between atoms: _96  and  _97
REMARK   41  A    between atoms: _100  and  _102
REMARK   42  A    between atoms: _102  and  _103
REMARK   43  A    between atoms: _106  and  _108
REMARK   44  A    between atoms: _108  and  _109
REMARK   45  A    between atoms: _108  and  _111
REMARK   46  A    between atoms: _111  and  _112
REMARK   47  A    between atoms: _115  and  _117
REMARK   48  A    between atoms: _117  and  _118
REMARK   49  A    between atoms: _117  and  _120
REMARK   50  A    between atoms: _123  and  _125
REMARK   51  A    between atoms: _125  and  _126
REMARK   52  A    between atoms: _125  and  _128
REMARK   53  A    between atoms: _128  and  _129
REMARK   54  A    between atoms: _131  and  _133
REMARK   55  A    between atoms: _133  and  _134
REMARK   56  A    between atoms: _133  and  _136
REMARK   57  A    between atoms: _136  and  _137
REMARK   58  A    between atoms: _140  and  _142
REMARK   59  A    between atoms: _142  and  _143
REMARK   60  A    between atoms: _142  and  _145
REMARK   61  A    between atoms: _145  and  _146
REMARK   62  A    between atoms: _152  and  _154
REMARK   63  A    between atoms: _154  and  _155
REMARK   64  A    between atoms: _154  and  _157
REMARK   65  A    between atoms: _157  and  _158
REMARK   66  A    between atoms: _163  and  _165
REMARK   67  A    between atoms: _165  and  _166
REMARK   68  A    between atoms: _165  and  _168
REMARK   69  A    between atoms: _168  and  _169
REMARK   70  A    between atoms: _169  and  _170
REMARK   71  A    between atoms: _175  and  _177
REMARK   72  A    between atoms: _177  and  _178
REMARK   73  A    between atoms: _177  and  _180
REMARK   74  A    between atoms: _180  and  _181
REMARK   75  A    between atoms: _187  and  _189
REMARK   76  A    between atoms: _189  and  _190
REMARK   77  A    between atoms: _189  and  _192
REMARK   78  A    between atoms: _192  and  _193
REMARK   79  A    between atoms: _198  and  _199
REMARK   80  A    between atoms: _202  and  _203
REMARK   81  A    between atoms: _208  and  _210
REMARK   82  A    between atoms: _210  and  _211
REMARK   83  A    between atoms: _210  and  _213
REMARK   84  A    between atoms: _213  and  _214
REMARK   85  A    between atoms: _214  and  _215
REMARK   86  A    between atoms: _218  and  _220
REMARK   87  A    between atoms: _220  and  _221
REMARK   88  A    between atoms: _220  and  _223
REMARK   89  A    between atoms: _223  and  _224
REMARK   90  A    between atoms: _229  and  _231
REMARK   91  A    between atoms: _231  and  _232
REMARK   92  A    between atoms: _231  and  _234
REMARK   93  A    between atoms: _234  and  _235
REMARK   94  A    between atoms: _241  and  _243
REMARK   95  A    between atoms: _243  and  _244
REMARK   96  A    between atoms: _243  and  _246
REMARK   97  A    between atoms: _249  and  _251
REMARK   98  A    between atoms: _251  and  _252
REMARK   99  A    between atoms: _251  and  _254
REMARK  100  A    between atoms: _257  and  _259
REMARK  101  A    between atoms: _259  and  _260
REMARK  102  A    between atoms: _259  and  _262
REMARK  103  A    between atoms: _262  and  _263
REMARK  104  A    between atoms: _269  and  _271
REMARK  105  A    between atoms: _271  and  _272
REMARK  106  A    between atoms: _271  and  _274
REMARK  107  A    between atoms: _274  and  _275
REMARK  108  A    between atoms: _281  and  _283
REMARK  109  A    between atoms: _283  and  _284
REMARK  110  A    between atoms: _286  and  _288
REMARK  111  A    between atoms: _288  and  _289
REMARK  112  A    between atoms: _288  and  _291
REMARK  113  A    between atoms: _291  and  _292
REMARK  114  A    between atoms: _292  and  _293
REMARK  115  A    between atoms: _296  and  _298
REMARK  116  A    between atoms: _298  and  _299
REMARK  117  A    between atoms: _298  and  _301
REMARK  118  A    between atoms: _301  and  _302
REMARK  119  A    between atoms: _302  and  _303
REMARK  120  A    between atoms: _303  and  _304
REMARK  121  A    between atoms: _304  and  _305
REMARK  122  A    between atoms: _309  and  _311
REMARK  123  A    between atoms: _311  and  _312
REMARK  124  A    between atoms: _311  and  _314
REMARK  125  A    between atoms: _314  and  _315
REMARK  126  A    between atoms: _318  and  _320
REMARK  127  A    between atoms: _320  and  _321
REMARK  128  A    between atoms: _320  and  _323
REMARK  129  A    between atoms: _323  and  _324
REMARK  130  A    between atoms: _329  and  _330
REMARK  131  A    between atoms: _332  and  _334
REMARK  132  A    between atoms: _334  and  _335
REMARK  133  A    between atoms: _334  and  _337
REMARK  134  A    between atoms: _337  and  _338
REMARK  135  A    between atoms: _338  and  _339
REMARK  136  A    between atoms: _344  and  _346
REMARK  137  A    between atoms: _346  and  _347
REMARK  138  A    between atoms: _346  and  _349
REMARK  139  A    between atoms: _349  and  _350
REMARK  140  A    between atoms: _353  and  _355
REMARK  141  A    between atoms: _355  and  _356
REMARK  142  A    between atoms: _355  and  _358
REMARK  143  A    between atoms: _358  and  _359
REMARK  144  A    between atoms: _362  and  _364
REMARK  145  A    between atoms: _364  and  _365
REMARK  146  A    between atoms: _367  and  _369
REMARK  147  A    between atoms: _369  and  _370
REMARK  148  A    between atoms: _369  and  _372
REMARK  149  A    between atoms: _376  and  _377
REMARK  150  A    between atoms: _382  and  _384
REMARK  151  A    between atoms: _384  and  _385
REMARK  152  A    between atoms: _384  and  _387
REMARK  153  A    between atoms: _387  and  _388
REMARK  154  A    between atoms: _391  and  _393
REMARK  155  A    between atoms: _393  and  _394
REMARK  156  A    between atoms: _393  and  _396
REMARK  157  A    between atoms: _399  and  _401
REMARK  158  A    between atoms: _401  and  _402
REMARK  159  A    between atoms: _401  and  _404
REMARK  160  A    between atoms: _404  and  _405
REMARK  161  A    between atoms: _405  and  _406
REMARK  162  A    between atoms: _406  and  _407
REMARK  163  A    between atoms: _416  and  _418
REMARK  164  A    between atoms: _418  and  _419
REMARK  165  A    between atoms: _418  and  _421
REMARK  166  A    between atoms: _421  and  _422
REMARK  167  A    between atoms: _425  and  _427
REMARK  168  A    between atoms: _427  and  _428
REMARK  169  A    between atoms: _431  and  _433
REMARK  170  A    between atoms: _433  and  _434
REMARK  171  A    between atoms: _433  and  _436
REMARK  172  A    between atoms: _436  and  _437
REMARK  173  A    between atoms: _437  and  _438
REMARK  174  A    between atoms: _440  and  _442
REMARK  175  A    between atoms: _442  and  _443
REMARK  176  A    between atoms: _442  and  _445
REMARK  177  A    between atoms: _445  and  _446
REMARK  178  A    between atoms: _448  and  _450
REMARK  179  A    between atoms: _450  and  _451
REMARK  180  A    between atoms: _450  and  _453
REMARK  181  A    between atoms: _453  and  _454
REMARK  182  A    between atoms: _456  and  _458
REMARK  183  A    between atoms: _458  and  _459
REMARK  184  A    between atoms: _458  and  _461
REMARK  185  A    between atoms: _461  and  _462
REMARK  186  A    between atoms: _462  and  _463
REMARK  187  A    between atoms: _463  and  _464
REMARK  188  A    between atoms: _473  and  _475
REMARK  189  A    between atoms: _475  and  _476
REMARK  190  A    between atoms: _475  and  _478
REMARK  191  A    between atoms: _478  and  _479
REMARK  192  A    between atoms: _484  and  _486
REMARK  193  A    between atoms: _486  and  _487
REMARK  194  A    between atoms: _486  and  _489
REMARK  195  A    between atoms: _489  and  _490
REMARK  196  A    between atoms: _490  and  _491
REMARK  197  A    between atoms: _491  and  _492
REMARK  198  A    between atoms: _501  and  _503
REMARK  199  A    between atoms: _503  and  _504
REMARK  200  A    between atoms: _503  and  _506
REMARK  201  A    between atoms: _506  and  _507
REMARK  202  A    between atoms: _507  and  _508
REMARK  203  A    between atoms: _508  and  _509
REMARK  204  A    between atoms: _518  and  _520
REMARK  205  A    between atoms: _520  and  _521
REMARK  206  A    between atoms: _520  and  _523
REMARK  207  A    between atoms: _523  and  _524
REMARK  208  A    between atoms: _527  and  _529
REMARK  209  A    between atoms: _529  and  _530
REMARK  210  A    between atoms: _529  and  _532
REMARK  211  A    between atoms: _532  and  _533
REMARK  212  A    between atoms: _536  and  _538
REMARK  213  A    between atoms: _538  and  _539
REMARK  214  A    between atoms: _538  and  _541
REMARK  215  A    between atoms: _541  and  _542
REMARK                            x       y       z     vdW  Elec       q    Type
REMARK                         _______ _______ _______ _____ _____    ______ ____
ROOT
ATOM      1  O   HOH     1      15.778   7.568   9.841  0.00  0.00    +0.000 OA
ENDROOT
TORSDOF 0
