REMARK  Name = ../refined-set-2016/2p3c/2p3c_pocket.pdb
REMARK  254 active torsions:
REMARK  status: ('A' for Active; 'I' for Inactive)
REMARK    1  A    between atoms: _1  and  _3
REMARK    2  A    between atoms: _3  and  _4
REMARK    3  A    between atoms: _3  and  _6
REMARK    4  A    between atoms: _6  and  _7
REMARK    5  A    between atoms: _7  and  _8
REMARK    6  A    between atoms: _8  and  _9
REMARK    7  A    between atoms: _9  and  _10
REMARK    8  A    between atoms: _14  and  _16
REMARK    9  A    between atoms: _16  and  _17
REMARK   10  A    between atoms: _16  and  _19
REMARK   11  A    between atoms: _19  and  _20
REMARK   12  A    between atoms: _20  and  _21
REMARK   13  A    between atoms: _21  and  _22
REMARK   14  A    between atoms: _31  and  _33
REMARK   15  A    between atoms: _33  and  _34
REMARK   16  A    between atoms: _33  and  _36
REMARK   17  A    between atoms: _36  and  _37
REMARK   18  A    between atoms: _40  and  _42
REMARK   19  A    between atoms: _42  and  _43
REMARK   20  A    between atoms: _42  and  _45
REMARK   21  A    between atoms: _45  and  _46
REMARK   22  A    between atoms: _49  and  _51
REMARK   23  A    between atoms: _51  and  _52
REMARK   24  A    between atoms: _51  and  _54
REMARK   25  A    between atoms: _54  and  _55
REMARK   26  A    between atoms: _58  and  _60
REMARK   27  A    between atoms: _60  and  _61
REMARK   28  A    between atoms: _60  and  _63
REMARK   29  A    between atoms: _63  and  _64
REMARK   30  A    between atoms: _67  and  _69
REMARK   31  A    between atoms: _69  and  _70
REMARK   32  A    between atoms: _72  and  _74
REMARK   33  A    between atoms: _74  and  _75
REMARK   34  A    between atoms: _78  and  _80
REMARK   35  A    between atoms: _80  and  _81
REMARK   36  A    between atoms: _80  and  _83
REMARK   37  A    between atoms: _83  and  _84
REMARK   38  A    between atoms: _87  and  _89
REMARK   39  A    between atoms: _89  and  _90
REMARK   40  A    between atoms: _89  and  _92
REMARK   41  A    between atoms: _92  and  _93
REMARK   42  A    between atoms: _96  and  _98
REMARK   43  A    between atoms: _98  and  _99
REMARK   44  A    between atoms: _98  and  _101
REMARK   45  A    between atoms: _101  and  _102
REMARK   46  A    between atoms: _105  and  _107
REMARK   47  A    between atoms: _107  and  _108
REMARK   48  A    between atoms: _107  and  _110
REMARK   49  A    between atoms: _113  and  _115
REMARK   50  A    between atoms: _115  and  _116
REMARK   51  A    between atoms: _115  and  _118
REMARK   52  A    between atoms: _118  and  _119
REMARK   53  A    between atoms: _119  and  _120
REMARK   54  A    between atoms: _120  and  _121
REMARK   55  A    between atoms: _121  and  _122
REMARK   56  A    between atoms: _126  and  _128
REMARK   57  A    between atoms: _128  and  _129
REMARK   58  A    between atoms: _128  and  _131
REMARK   59  A    between atoms: _131  and  _132
REMARK   60  A    between atoms: _132  and  _133
REMARK   61  A    between atoms: _135  and  _137
REMARK   62  A    between atoms: _137  and  _138
REMARK   63  A    between atoms: _137  and  _140
REMARK   64  A    between atoms: _140  and  _141
REMARK   65  A    between atoms: _144  and  _146
REMARK   66  A    between atoms: _146  and  _147
REMARK   67  A    between atoms: _149  and  _151
REMARK   68  A    between atoms: _151  and  _152
REMARK   69  A    between atoms: _154  and  _156
REMARK   70  A    between atoms: _156  and  _157
REMARK   71  A    between atoms: _156  and  _159
REMARK   72  A    between atoms: _159  and  _160
REMARK   73  A    between atoms: _163  and  _165
REMARK   74  A    between atoms: _165  and  _166
REMARK   75  A    between atoms: _168  and  _170
REMARK   76  A    between atoms: _170  and  _171
REMARK   77  A    between atoms: _173  and  _175
REMARK   78  A    between atoms: _175  and  _176
REMARK   79  A    between atoms: _175  and  _178
REMARK   80  A    between atoms: _178  and  _179
REMARK   81  A    between atoms: _185  and  _187
REMARK   82  A    between atoms: _187  and  _188
REMARK   83  A    between atoms: _187  and  _190
REMARK   84  A    between atoms: _190  and  _191
REMARK   85  A    between atoms: _194  and  _196
REMARK   86  A    between atoms: _196  and  _197
REMARK   87  A    between atoms: _196  and  _199
REMARK   88  A    between atoms: _202  and  _204
REMARK   89  A    between atoms: _204  and  _205
REMARK   90  A    between atoms: _204  and  _207
REMARK   91  A    between atoms: _207  and  _208
REMARK   92  A    between atoms: _208  and  _209
REMARK   93  A    between atoms: _214  and  _216
REMARK   94  A    between atoms: _216  and  _217
REMARK   95  A    between atoms: _216  and  _219
REMARK   96  A    between atoms: _219  and  _220
REMARK   97  A    between atoms: _224  and  _225
REMARK   98  A    between atoms: _230  and  _232
REMARK   99  A    between atoms: _232  and  _233
REMARK  100  A    between atoms: _232  and  _235
REMARK  101  A    between atoms: _235  and  _236
REMARK  102  A    between atoms: _240  and  _241
REMARK  103  A    between atoms: _246  and  _248
REMARK  104  A    between atoms: _248  and  _249
REMARK  105  A    between atoms: _248  and  _251
REMARK  106  A    between atoms: _254  and  _256
REMARK  107  A    between atoms: _256  and  _257
REMARK  108  A    between atoms: _256  and  _259
REMARK  109  A    between atoms: _259  and  _260
REMARK  110  A    between atoms: _265  and  _267
REMARK  111  A    between atoms: _267  and  _268
REMARK  112  A    between atoms: _267  and  _270
REMARK  113  A    between atoms: _270  and  _271
REMARK  114  A    between atoms: _274  and  _276
REMARK  115  A    between atoms: _276  and  _277
REMARK  116  A    between atoms: _276  and  _279
REMARK  117  A    between atoms: _279  and  _280
REMARK  118  A    between atoms: _283  and  _285
REMARK  119  A    between atoms: _285  and  _286
REMARK  120  A    between atoms: _288  and  _290
REMARK  121  A    between atoms: _290  and  _291
REMARK  122  A    between atoms: _290  and  _293
REMARK  123  A    between atoms: _293  and  _294
REMARK  124  A    between atoms: _294  and  _295
REMARK  125  A    between atoms: _295  and  _296
REMARK  126  A    between atoms: _305  and  _307
REMARK  127  A    between atoms: _307  and  _308
REMARK  128  A    between atoms: _307  and  _310
REMARK  129  A    between atoms: _310  and  _311
REMARK  130  A    between atoms: _316  and  _318
REMARK  131  A    between atoms: _318  and  _319
REMARK  132  A    between atoms: _318  and  _321
REMARK  133  A    between atoms: _321  and  _322
REMARK  134  A    between atoms: _322  and  _323
REMARK  135  A    between atoms: _323  and  _324
REMARK  136  A    between atoms: _324  and  _325
REMARK  137  A    between atoms: _329  and  _331
REMARK  138  A    between atoms: _331  and  _332
REMARK  139  A    between atoms: _331  and  _334
REMARK  140  A    between atoms: _334  and  _335
REMARK  141  A    between atoms: _335  and  _336
REMARK  142  A    between atoms: _336  and  _337
REMARK  143  A    between atoms: _346  and  _348
REMARK  144  A    between atoms: _348  and  _349
REMARK  145  A    between atoms: _348  and  _351
REMARK  146  A    between atoms: _351  and  _352
REMARK  147  A    between atoms: _355  and  _357
REMARK  148  A    between atoms: _357  and  _358
REMARK  149  A    between atoms: _357  and  _360
REMARK  150  A    between atoms: _360  and  _361
REMARK  151  A    between atoms: _364  and  _366
REMARK  152  A    between atoms: _366  and  _367
REMARK  153  A    between atoms: _366  and  _369
REMARK  154  A    between atoms: _369  and  _370
REMARK  155  A    between atoms: _373  and  _375
REMARK  156  A    between atoms: _375  and  _376
REMARK  157  A    between atoms: _375  and  _378
REMARK  158  A    between atoms: _378  and  _379
REMARK  159  A    between atoms: _382  and  _384
REMARK  160  A    between atoms: _384  and  _385
REMARK  161  A    between atoms: _387  and  _389
REMARK  162  A    between atoms: _389  and  _390
REMARK  163  A    between atoms: _393  and  _395
REMARK  164  A    between atoms: _395  and  _396
REMARK  165  A    between atoms: _395  and  _398
REMARK  166  A    between atoms: _398  and  _399
REMARK  167  A    between atoms: _402  and  _404
REMARK  168  A    between atoms: _404  and  _405
REMARK  169  A    between atoms: _404  and  _407
REMARK  170  A    between atoms: _407  and  _408
REMARK  171  A    between atoms: _411  and  _413
REMARK  172  A    between atoms: _413  and  _414
REMARK  173  A    between atoms: _413  and  _416
REMARK  174  A    between atoms: _416  and  _417
REMARK  175  A    between atoms: _420  and  _422
REMARK  176  A    between atoms: _422  and  _423
REMARK  177  A    between atoms: _422  and  _425
REMARK  178  A    between atoms: _428  and  _430
REMARK  179  A    between atoms: _430  and  _431
REMARK  180  A    between atoms: _430  and  _433
REMARK  181  A    between atoms: _433  and  _434
REMARK  182  A    between atoms: _434  and  _435
REMARK  183  A    between atoms: _435  and  _436
REMARK  184  A    between atoms: _436  and  _437
REMARK  185  A    between atoms: _441  and  _443
REMARK  186  A    between atoms: _443  and  _444
REMARK  187  A    between atoms: _443  and  _446
REMARK  188  A    between atoms: _446  and  _447
REMARK  189  A    between atoms: _447  and  _448
REMARK  190  A    between atoms: _450  and  _452
REMARK  191  A    between atoms: _452  and  _453
REMARK  192  A    between atoms: _452  and  _455
REMARK  193  A    between atoms: _455  and  _456
REMARK  194  A    between atoms: _459  and  _461
REMARK  195  A    between atoms: _461  and  _462
REMARK  196  A    between atoms: _464  and  _466
REMARK  197  A    between atoms: _466  and  _467
REMARK  198  A    between atoms: _469  and  _471
REMARK  199  A    between atoms: _471  and  _472
REMARK  200  A    between atoms: _471  and  _474
REMARK  201  A    between atoms: _474  and  _475
REMARK  202  A    between atoms: _478  and  _480
REMARK  203  A    between atoms: _480  and  _481
REMARK  204  A    between atoms: _483  and  _485
REMARK  205  A    between atoms: _485  and  _486
REMARK  206  A    between atoms: _488  and  _490
REMARK  207  A    between atoms: _490  and  _491
REMARK  208  A    between atoms: _490  and  _493
REMARK  209  A    between atoms: _493  and  _494
REMARK  210  A    between atoms: _500  and  _502
REMARK  211  A    between atoms: _502  and  _503
REMARK  212  A    between atoms: _502  and  _505
REMARK  213  A    between atoms: _505  and  _506
REMARK  214  A    between atoms: _509  and  _511
REMARK  215  A    between atoms: _511  and  _512
REMARK  216  A    between atoms: _511  and  _514
REMARK  217  A    between atoms: _517  and  _519
REMARK  218  A    between atoms: _519  and  _520
REMARK  219  A    between atoms: _519  and  _522
REMARK  220  A    between atoms: _522  and  _523
REMARK  221  A    between atoms: _523  and  _524
REMARK  222  A    between atoms: _529  and  _531
REMARK  223  A    between atoms: _531  and  _532
REMARK  224  A    between atoms: _531  and  _534
REMARK  225  A    between atoms: _534  and  _535
REMARK  226  A    between atoms: _539  and  _540
REMARK  227  A    between atoms: _545  and  _547
REMARK  228  A    between atoms: _547  and  _548
REMARK  229  A    between atoms: _547  and  _550
REMARK  230  A    between atoms: _550  and  _551
REMARK  231  A    between atoms: _555  and  _556
REMARK  232  A    between atoms: _561  and  _563
REMARK  233  A    between atoms: _563  and  _564
REMARK  234  A    between atoms: _563  and  _566
REMARK  235  A    between atoms: _569  and  _571
REMARK  236  A    between atoms: _571  and  _572
REMARK  237  A    between atoms: _571  and  _574
REMARK  238  A    between atoms: _574  and  _575
REMARK  239  A    between atoms: _580  and  _582
REMARK  240  A    between atoms: _582  and  _583
REMARK  241  A    between atoms: _582  and  _585
REMARK  242  A    between atoms: _585  and  _586
REMARK  243  A    between atoms: _589  and  _591
REMARK  244  A    between atoms: _591  and  _592
REMARK  245  A    between atoms: _591  and  _594
REMARK  246  A    between atoms: _594  and  _595
REMARK  247  A    between atoms: _598  and  _600
REMARK  248  A    between atoms: _600  and  _601
REMARK  249  A    between atoms: _603  and  _605
REMARK  250  A    between atoms: _605  and  _606
REMARK  251  A    between atoms: _605  and  _608
REMARK  252  A    between atoms: _608  and  _609
REMARK  253  A    between atoms: _609  and  _610
REMARK  254  A    between atoms: _610  and  _611
REMARK                            x       y       z     vdW  Elec       q    Type
REMARK                         _______ _______ _______ _____ _____    ______ ____
ROOT
ATOM      1  C   LYS A   1      -6.805 -27.852  20.405  0.00  0.00    +0.238 C 
ATOM      2  N   ARG A   2      -5.923 -26.962  19.961  0.00  0.00    -0.298 N 
ATOM      3  H   ARG A   2      -5.184 -26.624  20.610  0.00  0.00    +0.150 HD
ATOM      4  O   LYS A   1      -7.858 -28.125  19.827  0.00  0.00    -0.274 OA
ENDROOT
BRANCH   1   5
ATOM      5  CA  LYS A   1      -6.459 -28.487  21.729  0.00  0.00    +0.145 C 
BRANCH   5   6
ATOM      6  N   LYS A   1      -7.590 -29.231  22.241  0.00  0.00    -0.238 NA
ATOM      7  H   LYS A   1      -7.999 -30.013  21.690  0.00  0.00    +0.142 HD
ENDBRANCH   5   6
BRANCH   5   8
ATOM      8  CB  LYS A   1      -5.194 -29.349  21.631  0.00  0.00    +0.026 C 
BRANCH   8   9
ATOM      9  CG  LYS A   1      -3.918 -28.536  21.255  0.00  0.00    -0.000 C 
BRANCH   9  10
ATOM     10  CD  LYS A   1      -3.663 -27.377  22.229  0.00  0.00    -0.024 C 
BRANCH  10  11
ATOM     11  CE  LYS A   1      -2.911 -26.220  21.588  0.00  0.00    -0.086 C 
BRANCH  11  12
ATOM     12  NZ  LYS A   1      -3.196 -24.945  22.333  0.00  0.00    +0.380 N 
ATOM     13  HZ1 LYS A   1      -2.890 -25.047  23.322  0.00  0.00    -0.089 HD
ATOM     14  HZ2 LYS A   1      -4.217 -24.748  22.303  0.00  0.00    -0.089 HD
ATOM     15  HZ3 LYS A   1      -2.678 -24.161  21.887  0.00  0.00    -0.089 HD
ENDBRANCH  11  12
ENDBRANCH  10  11
ENDBRANCH   9  10
ENDBRANCH   8   9
ENDBRANCH   5   8
ENDBRANCH   1   5
BRANCH   2  16
ATOM     16  CA  ARG A   2      -5.950 -26.449  18.619  0.00  0.00    +0.137 C 
BRANCH  16  17
ATOM     17  C   ARG A   2      -6.131 -27.597  17.640  0.00  0.00    +0.227 C 
ATOM     18  O   ARG A   2      -5.423 -28.608  17.721  0.00  0.00    -0.286 OA
ENDBRANCH  16  17
BRANCH  16  19
ATOM     19  CB  ARG A   2      -4.648 -25.732  18.314  0.00  0.00    +0.031 C 
BRANCH  19  20
ATOM     20  CG  ARG A   2      -4.630 -24.284  18.758  0.00  0.00    +0.045 C 
BRANCH  20  21
ATOM     21  CD  ARG A   2      -3.501 -23.524  18.123  0.00  0.00    +0.174 C 
BRANCH  21  22
ATOM     22  NE  ARG A   2      -2.213 -24.174  18.373  0.00  0.00    -0.265 N 
ATOM     23  HE  ARG A   2      -2.115 -24.738  19.241  0.00  0.00    +0.259 HD
ATOM     24  CZ  ARG A   2      -1.162 -24.092  17.566  0.00  0.00    +0.342 C 
ATOM     25  NH2 ARG A   2      -0.043 -24.715  17.891  0.00  0.00    -0.292 N 
ATOM     26 HH21 ARG A   2       0.009 -25.264  18.773  0.00  0.00    +0.255 HD
ATOM     27 HH22 ARG A   2       0.785 -24.656  17.265  0.00  0.00    +0.255 HD
ATOM     28  NH1 ARG A   2      -1.230 -23.401  16.429  0.00  0.00    -0.292 N 
ATOM     29 HH11 ARG A   2      -2.113 -22.919  16.166  0.00  0.00    +0.255 HD
ATOM     30 HH12 ARG A   2      -0.400 -23.344  15.805  0.00  0.00    +0.255 HD
ENDBRANCH  21  22
ENDBRANCH  20  21
ENDBRANCH  19  20
ENDBRANCH  16  19
ENDBRANCH   2  16
TORSDOF 13
REMARK  Name = ../refined-set-2016/2p3c/2p3c_pocket.pdb
REMARK  254 active torsions:
REMARK  status: ('A' for Active; 'I' for Inactive)
REMARK    1  A    between atoms: _1  and  _3
REMARK    2  A    between atoms: _3  and  _4
REMARK    3  A    between atoms: _3  and  _6
REMARK    4  A    between atoms: _6  and  _7
REMARK    5  A    between atoms: _7  and  _8
REMARK    6  A    between atoms: _8  and  _9
REMARK    7  A    between atoms: _9  and  _10
REMARK    8  A    between atoms: _14  and  _16
REMARK    9  A    between atoms: _16  and  _17
REMARK   10  A    between atoms: _16  and  _19
REMARK   11  A    between atoms: _19  and  _20
REMARK   12  A    between atoms: _20  and  _21
REMARK   13  A    between atoms: _21  and  _22
REMARK   14  A    between atoms: _31  and  _33
REMARK   15  A    between atoms: _33  and  _34
REMARK   16  A    between atoms: _33  and  _36
REMARK   17  A    between atoms: _36  and  _37
REMARK   18  A    between atoms: _40  and  _42
REMARK   19  A    between atoms: _42  and  _43
REMARK   20  A    between atoms: _42  and  _45
REMARK   21  A    between atoms: _45  and  _46
REMARK   22  A    between atoms: _49  and  _51
REMARK   23  A    between atoms: _51  and  _52
REMARK   24  A    between atoms: _51  and  _54
REMARK   25  A    between atoms: _54  and  _55
REMARK   26  A    between atoms: _58  and  _60
REMARK   27  A    between atoms: _60  and  _61
REMARK   28  A    between atoms: _60  and  _63
REMARK   29  A    between atoms: _63  and  _64
REMARK   30  A    between atoms: _67  and  _69
REMARK   31  A    between atoms: _69  and  _70
REMARK   32  A    between atoms: _72  and  _74
REMARK   33  A    between atoms: _74  and  _75
REMARK   34  A    between atoms: _78  and  _80
REMARK   35  A    between atoms: _80  and  _81
REMARK   36  A    between atoms: _80  and  _83
REMARK   37  A    between atoms: _83  and  _84
REMARK   38  A    between atoms: _87  and  _89
REMARK   39  A    between atoms: _89  and  _90
REMARK   40  A    between atoms: _89  and  _92
REMARK   41  A    between atoms: _92  and  _93
REMARK   42  A    between atoms: _96  and  _98
REMARK   43  A    between atoms: _98  and  _99
REMARK   44  A    between atoms: _98  and  _101
REMARK   45  A    between atoms: _101  and  _102
REMARK   46  A    between atoms: _105  and  _107
REMARK   47  A    between atoms: _107  and  _108
REMARK   48  A    between atoms: _107  and  _110
REMARK   49  A    between atoms: _113  and  _115
REMARK   50  A    between atoms: _115  and  _116
REMARK   51  A    between atoms: _115  and  _118
REMARK   52  A    between atoms: _118  and  _119
REMARK   53  A    between atoms: _119  and  _120
REMARK   54  A    between atoms: _120  and  _121
REMARK   55  A    between atoms: _121  and  _122
REMARK   56  A    between atoms: _126  and  _128
REMARK   57  A    between atoms: _128  and  _129
REMARK   58  A    between atoms: _128  and  _131
REMARK   59  A    between atoms: _131  and  _132
REMARK   60  A    between atoms: _132  and  _133
REMARK   61  A    between atoms: _135  and  _137
REMARK   62  A    between atoms: _137  and  _138
REMARK   63  A    between atoms: _137  and  _140
REMARK   64  A    between atoms: _140  and  _141
REMARK   65  A    between atoms: _144  and  _146
REMARK   66  A    between atoms: _146  and  _147
REMARK   67  A    between atoms: _149  and  _151
REMARK   68  A    between atoms: _151  and  _152
REMARK   69  A    between atoms: _154  and  _156
REMARK   70  A    between atoms: _156  and  _157
REMARK   71  A    between atoms: _156  and  _159
REMARK   72  A    between atoms: _159  and  _160
REMARK   73  A    between atoms: _163  and  _165
REMARK   74  A    between atoms: _165  and  _166
REMARK   75  A    between atoms: _168  and  _170
REMARK   76  A    between atoms: _170  and  _171
REMARK   77  A    between atoms: _173  and  _175
REMARK   78  A    between atoms: _175  and  _176
REMARK   79  A    between atoms: _175  and  _178
REMARK   80  A    between atoms: _178  and  _179
REMARK   81  A    between atoms: _185  and  _187
REMARK   82  A    between atoms: _187  and  _188
REMARK   83  A    between atoms: _187  and  _190
REMARK   84  A    between atoms: _190  and  _191
REMARK   85  A    between atoms: _194  and  _196
REMARK   86  A    between atoms: _196  and  _197
REMARK   87  A    between atoms: _196  and  _199
REMARK   88  A    between atoms: _202  and  _204
REMARK   89  A    between atoms: _204  and  _205
REMARK   90  A    between atoms: _204  and  _207
REMARK   91  A    between atoms: _207  and  _208
REMARK   92  A    between atoms: _208  and  _209
REMARK   93  A    between atoms: _214  and  _216
REMARK   94  A    between atoms: _216  and  _217
REMARK   95  A    between atoms: _216  and  _219
REMARK   96  A    between atoms: _219  and  _220
REMARK   97  A    between atoms: _224  and  _225
REMARK   98  A    between atoms: _230  and  _232
REMARK   99  A    between atoms: _232  and  _233
REMARK  100  A    between atoms: _232  and  _235
REMARK  101  A    between atoms: _235  and  _236
REMARK  102  A    between atoms: _240  and  _241
REMARK  103  A    between atoms: _246  and  _248
REMARK  104  A    between atoms: _248  and  _249
REMARK  105  A    between atoms: _248  and  _251
REMARK  106  A    between atoms: _254  and  _256
REMARK  107  A    between atoms: _256  and  _257
REMARK  108  A    between atoms: _256  and  _259
REMARK  109  A    between atoms: _259  and  _260
REMARK  110  A    between atoms: _265  and  _267
REMARK  111  A    between atoms: _267  and  _268
REMARK  112  A    between atoms: _267  and  _270
REMARK  113  A    between atoms: _270  and  _271
REMARK  114  A    between atoms: _274  and  _276
REMARK  115  A    between atoms: _276  and  _277
REMARK  116  A    between atoms: _276  and  _279
REMARK  117  A    between atoms: _279  and  _280
REMARK  118  A    between atoms: _283  and  _285
REMARK  119  A    between atoms: _285  and  _286
REMARK  120  A    between atoms: _288  and  _290
REMARK  121  A    between atoms: _290  and  _291
REMARK  122  A    between atoms: _290  and  _293
REMARK  123  A    between atoms: _293  and  _294
REMARK  124  A    between atoms: _294  and  _295
REMARK  125  A    between atoms: _295  and  _296
REMARK  126  A    between atoms: _305  and  _307
REMARK  127  A    between atoms: _307  and  _308
REMARK  128  A    between atoms: _307  and  _310
REMARK  129  A    between atoms: _310  and  _311
REMARK  130  A    between atoms: _316  and  _318
REMARK  131  A    between atoms: _318  and  _319
REMARK  132  A    between atoms: _318  and  _321
REMARK  133  A    between atoms: _321  and  _322
REMARK  134  A    between atoms: _322  and  _323
REMARK  135  A    between atoms: _323  and  _324
REMARK  136  A    between atoms: _324  and  _325
REMARK  137  A    between atoms: _329  and  _331
REMARK  138  A    between atoms: _331  and  _332
REMARK  139  A    between atoms: _331  and  _334
REMARK  140  A    between atoms: _334  and  _335
REMARK  141  A    between atoms: _335  and  _336
REMARK  142  A    between atoms: _336  and  _337
REMARK  143  A    between atoms: _346  and  _348
REMARK  144  A    between atoms: _348  and  _349
REMARK  145  A    between atoms: _348  and  _351
REMARK  146  A    between atoms: _351  and  _352
REMARK  147  A    between atoms: _355  and  _357
REMARK  148  A    between atoms: _357  and  _358
REMARK  149  A    between atoms: _357  and  _360
REMARK  150  A    between atoms: _360  and  _361
REMARK  151  A    between atoms: _364  and  _366
REMARK  152  A    between atoms: _366  and  _367
REMARK  153  A    between atoms: _366  and  _369
REMARK  154  A    between atoms: _369  and  _370
REMARK  155  A    between atoms: _373  and  _375
REMARK  156  A    between atoms: _375  and  _376
REMARK  157  A    between atoms: _375  and  _378
REMARK  158  A    between atoms: _378  and  _379
REMARK  159  A    between atoms: _382  and  _384
REMARK  160  A    between atoms: _384  and  _385
REMARK  161  A    between atoms: _387  and  _389
REMARK  162  A    between atoms: _389  and  _390
REMARK  163  A    between atoms: _393  and  _395
REMARK  164  A    between atoms: _395  and  _396
REMARK  165  A    between atoms: _395  and  _398
REMARK  166  A    between atoms: _398  and  _399
REMARK  167  A    between atoms: _402  and  _404
REMARK  168  A    between atoms: _404  and  _405
REMARK  169  A    between atoms: _404  and  _407
REMARK  170  A    between atoms: _407  and  _408
REMARK  171  A    between atoms: _411  and  _413
REMARK  172  A    between atoms: _413  and  _414
REMARK  173  A    between atoms: _413  and  _416
REMARK  174  A    between atoms: _416  and  _417
REMARK  175  A    between atoms: _420  and  _422
REMARK  176  A    between atoms: _422  and  _423
REMARK  177  A    between atoms: _422  and  _425
REMARK  178  A    between atoms: _428  and  _430
REMARK  179  A    between atoms: _430  and  _431
REMARK  180  A    between atoms: _430  and  _433
REMARK  181  A    between atoms: _433  and  _434
REMARK  182  A    between atoms: _434  and  _435
REMARK  183  A    between atoms: _435  and  _436
REMARK  184  A    between atoms: _436  and  _437
REMARK  185  A    between atoms: _441  and  _443
REMARK  186  A    between atoms: _443  and  _444
REMARK  187  A    between atoms: _443  and  _446
REMARK  188  A    between atoms: _446  and  _447
REMARK  189  A    between atoms: _447  and  _448
REMARK  190  A    between atoms: _450  and  _452
REMARK  191  A    between atoms: _452  and  _453
REMARK  192  A    between atoms: _452  and  _455
REMARK  193  A    between atoms: _455  and  _456
REMARK  194  A    between atoms: _459  and  _461
REMARK  195  A    between atoms: _461  and  _462
REMARK  196  A    between atoms: _464  and  _466
REMARK  197  A    between atoms: _466  and  _467
REMARK  198  A    between atoms: _469  and  _471
REMARK  199  A    between atoms: _471  and  _472
REMARK  200  A    between atoms: _471  and  _474
REMARK  201  A    between atoms: _474  and  _475
REMARK  202  A    between atoms: _478  and  _480
REMARK  203  A    between atoms: _480  and  _481
REMARK  204  A    between atoms: _483  and  _485
REMARK  205  A    between atoms: _485  and  _486
REMARK  206  A    between atoms: _488  and  _490
REMARK  207  A    between atoms: _490  and  _491
REMARK  208  A    between atoms: _490  and  _493
REMARK  209  A    between atoms: _493  and  _494
REMARK  210  A    between atoms: _500  and  _502
REMARK  211  A    between atoms: _502  and  _503
REMARK  212  A    between atoms: _502  and  _505
REMARK  213  A    between atoms: _505  and  _506
REMARK  214  A    between atoms: _509  and  _511
REMARK  215  A    between atoms: _511  and  _512
REMARK  216  A    between atoms: _511  and  _514
REMARK  217  A    between atoms: _517  and  _519
REMARK  218  A    between atoms: _519  and  _520
REMARK  219  A    between atoms: _519  and  _522
REMARK  220  A    between atoms: _522  and  _523
REMARK  221  A    between atoms: _523  and  _524
REMARK  222  A    between atoms: _529  and  _531
REMARK  223  A    between atoms: _531  and  _532
REMARK  224  A    between atoms: _531  and  _534
REMARK  225  A    between atoms: _534  and  _535
REMARK  226  A    between atoms: _539  and  _540
REMARK  227  A    between atoms: _545  and  _547
REMARK  228  A    between atoms: _547  and  _548
REMARK  229  A    between atoms: _547  and  _550
REMARK  230  A    between atoms: _550  and  _551
REMARK  231  A    between atoms: _555  and  _556
REMARK  232  A    between atoms: _561  and  _563
REMARK  233  A    between atoms: _563  and  _564
REMARK  234  A    between atoms: _563  and  _566
REMARK  235  A    between atoms: _569  and  _571
REMARK  236  A    between atoms: _571  and  _572
REMARK  237  A    between atoms: _571  and  _574
REMARK  238  A    between atoms: _574  and  _575
REMARK  239  A    between atoms: _580  and  _582
REMARK  240  A    between atoms: _582  and  _583
REMARK  241  A    between atoms: _582  and  _585
REMARK  242  A    between atoms: _585  and  _586
REMARK  243  A    between atoms: _589  and  _591
REMARK  244  A    between atoms: _591  and  _592
REMARK  245  A    between atoms: _591  and  _594
REMARK  246  A    between atoms: _594  and  _595
REMARK  247  A    between atoms: _598  and  _600
REMARK  248  A    between atoms: _600  and  _601
REMARK  249  A    between atoms: _603  and  _605
REMARK  250  A    between atoms: _605  and  _606
REMARK  251  A    between atoms: _605  and  _608
REMARK  252  A    between atoms: _608  and  _609
REMARK  253  A    between atoms: _609  and  _610
REMARK  254  A    between atoms: _610  and  _611
REMARK                            x       y       z     vdW  Elec       q    Type
REMARK                         _______ _______ _______ _____ _____    ______ ____
ROOT
ATOM      1  C   GLY A   5     -12.905 -17.902  10.748  0.00  0.00    +0.243 C 
ATOM      2  O   GLY A   5     -12.830 -16.682  10.725  0.00  0.00    -0.273 OA
ATOM      3  N   ALA A   6     -12.358 -18.680   9.815  0.00  0.00    -0.297 N 
ATOM      4  H   ALA A   6     -12.429 -19.714   9.905  0.00  0.00    +0.150 HD
ENDROOT
BRANCH   3   5
ATOM      5  CA  ALA A   6     -11.666 -18.111   8.678  0.00  0.00    +0.149 C 
ATOM      6  CB  ALA A   6     -10.273 -18.710   8.546  0.00  0.00    +0.031 C 
BRANCH   5   7
ATOM      7  C   ALA A   6     -12.461 -18.351   7.403  0.00  0.00    +0.241 C 
ATOM      8  O   ALA A   6     -12.735 -19.490   7.036  0.00  0.00    -0.273 OA
ATOM      9  N   ASP A   7     -12.815 -17.272   6.717  0.00  0.00    -0.297 N 
ATOM     10  H   ASP A   7     -12.617 -16.330   7.112  0.00  0.00    +0.150 HD
BRANCH   9  11
ATOM     11  CA  ASP A   7     -13.476 -17.378   5.421  0.00  0.00    +0.160 C 
BRANCH  11  12
ATOM     12  C   ASP A   7     -12.489 -18.060   4.485  0.00  0.00    +0.241 C 
ATOM     13  N   ASP A   8     -11.221 -17.684   4.629  0.00  0.00    -0.297 N 
ATOM     14  H   ASP A   8     -10.965 -17.134   5.473  0.00  0.00    +0.150 HD
ATOM     15  O   ASP A   7     -12.873 -18.909   3.670  0.00  0.00    -0.273 OA
BRANCH  13  16
ATOM     16  CA  ASP A   8     -10.166 -18.002   3.665  0.00  0.00    +0.160 C 
BRANCH  16  17
ATOM     17  C   ASP A   8      -9.063 -18.860   4.251  0.00  0.00    +0.241 C 
ATOM     18  O   ASP A   8      -8.851 -18.919   5.450  0.00  0.00    -0.273 OA
ATOM     19  N   THR A   9      -8.347 -19.529   3.366  0.00  0.00    -0.295 N 
ATOM     20  H   THR A   9      -8.609 -19.476   2.361  0.00  0.00    +0.150 HD
BRANCH  19  21
ATOM     21  CA  THR A   9      -7.225 -20.322   3.747  0.00  0.00    +0.176 C 
BRANCH  21  22
ATOM     22  C   THR A   9      -5.967 -19.512   3.571  0.00  0.00    +0.243 C 
ATOM     23  N   VAL A  10      -5.164 -19.454   4.626  0.00  0.00    -0.298 N 
ATOM     24  H   VAL A  10      -5.376 -20.033   5.463  0.00  0.00    +0.150 HD
ATOM     25  O   THR A   9      -5.729 -18.945   2.503  0.00  0.00    -0.273 OA
BRANCH  23  26
ATOM     26  CA  VAL A  10      -3.992 -18.592   4.629  0.00  0.00    +0.137 C 
BRANCH  26  27
ATOM     27  CB  VAL A  10      -4.160 -17.345   5.521  0.00  0.00    +0.026 C 
ATOM     28  CG2 VAL A  10      -5.590 -16.817   5.469  0.00  0.00    +0.002 C 
ATOM     29  CG1 VAL A  10      -3.144 -16.281   5.097  0.00  0.00    +0.002 C 
ENDBRANCH  26  27
BRANCH  26  30
ATOM     30  C   VAL A  10      -2.753 -19.337   5.108  0.00  0.00    +0.227 C 
ATOM     31  O   VAL A  10      -2.715 -19.850   6.222  0.00  0.00    -0.286 OA
ENDBRANCH  26  30
ENDBRANCH  23  26
ENDBRANCH  21  22
BRANCH  21  32
ATOM     32  CB  THR A   9      -7.221 -21.547   2.887  0.00  0.00    +0.137 C 
ATOM     33  CG2 THR A   9      -5.946 -22.434   3.160  0.00  0.00    +0.034 C 
BRANCH  32  34
ATOM     34  OG1 THR A   9      -8.302 -22.353   3.336  0.00  0.00    -0.382 OA
ATOM     35  HG1 THR A   9      -9.150 -21.851   3.237  0.00  0.00    +0.210 HD
ENDBRANCH  32  34
ENDBRANCH  21  32
ENDBRANCH  19  21
ENDBRANCH  16  17
BRANCH  16  36
ATOM     36  CB  ASP A   8      -9.532 -16.699   3.156  0.00  0.00    +0.143 C 
BRANCH  36  37
ATOM     37  CG  ASP A   8     -10.559 -15.726   2.589  0.00  0.00    +0.367 C 
ATOM     38  OD2 ASP A   8     -10.628 -14.538   2.962  0.00  0.00    -0.246 OA
ATOM     39  OD1 ASP A   8     -11.374 -16.122   1.733  0.00  0.00    -0.246 OA
ENDBRANCH  36  37
ENDBRANCH  16  36
ENDBRANCH  13  16
ENDBRANCH  11  12
BRANCH  11  40
ATOM     40  CB  ASP A   7     -13.786 -15.994   4.825  0.00  0.00    +0.143 C 
BRANCH  40  41
ATOM     41  CG  ASP A   7     -14.473 -15.034   5.800  0.00  0.00    +0.367 C 
ATOM     42  OD2 ASP A   7     -15.148 -15.460   6.760  0.00  0.00    -0.246 OA
ATOM     43  OD1 ASP A   7     -14.382 -13.799   5.672  0.00  0.00    -0.246 OA
ENDBRANCH  40  41
ENDBRANCH  11  40
ENDBRANCH   9  11
ENDBRANCH   5   7
ENDBRANCH   3   5
BRANCH   1  44
ATOM     44  CA  GLY A   5     -13.638 -18.589  11.879  0.00  0.00    +0.176 C 
BRANCH  44  46
ATOM     45  C   THR A   4     -14.443 -20.790  11.153  0.00  0.00    +0.243 C 
ATOM     46  N   GLY A   5     -13.568 -20.040  11.818  0.00  0.00    -0.295 N 
ATOM     47  H   GLY A   5     -12.793 -20.517  12.321  0.00  0.00    +0.150 HD
ATOM     48  O   THR A   4     -15.427 -20.356  10.606  0.00  0.00    -0.273 OA
BRANCH  45  49
ATOM     49  CA  THR A   4     -14.172 -22.273  11.140  0.00  0.00    +0.176 C 
BRANCH  49  51
ATOM     50  C   ASP A   3     -11.753 -22.248  10.808  0.00  0.00    +0.241 C 
ATOM     51  N   THR A   4     -12.795 -22.590  11.557  0.00  0.00    -0.295 N 
ATOM     52  H   THR A   4     -12.636 -23.091  12.454  0.00  0.00    +0.150 HD
ATOM     53  O   ASP A   3     -11.867 -21.661   9.721  0.00  0.00    -0.273 OA
BRANCH  50  54
ATOM     54  CA  ASP A   3     -10.385 -22.682  11.348  0.00  0.00    +0.160 C 
BRANCH  54  57
ATOM     55  C   LEU A   2      -9.624 -24.944  11.529  0.00  0.00    +0.241 C 
ATOM     56  O   LEU A   2      -9.879 -25.000  12.754  0.00  0.00    -0.273 OA
ATOM     57  N   ASP A   3      -9.957 -23.921  10.755  0.00  0.00    -0.297 N 
ATOM     58  H   ASP A   3      -9.909 -24.014   9.720  0.00  0.00    +0.150 HD
BRANCH  55  59
ATOM     59  CA  LEU A   2      -8.840 -26.040  10.846  0.00  0.00    +0.149 C 
BRANCH  59  61
ATOM     60  C   LEU A   1      -6.621 -25.038  11.061  0.00  0.00    +0.238 C 
ATOM     61  N   LEU A   2      -7.481 -26.004  11.374  0.00  0.00    -0.297 N 
ATOM     62  H   LEU A   2      -7.173 -26.760  12.018  0.00  0.00    +0.150 HD
ATOM     63  O   LEU A   1      -6.835 -24.215  10.170  0.00  0.00    -0.274 OA
BRANCH  60  64
ATOM     64  CA  LEU A   1      -5.312 -25.036  11.841  0.00  0.00    +0.145 C 
BRANCH  64  65
ATOM     65  N   LEU A   1      -4.250 -25.087  10.906  0.00  0.00    -0.238 NA
ATOM     66  H   LEU A   1      -3.946 -24.202  10.453  0.00  0.00    +0.142 HD
ENDBRANCH  64  65
BRANCH  64  67
ATOM     67  CB  LEU A   1      -5.120 -23.752  12.642  0.00  0.00    +0.026 C 
BRANCH  67  68
ATOM     68  CG  LEU A   1      -6.094 -23.359  13.728  0.00  0.00    +0.002 C 
ATOM     69  CD2 LEU A   1      -5.783 -24.130  14.946  0.00  0.00    +0.000 C 
ATOM     70  CD1 LEU A   1      -5.970 -21.841  13.980  0.00  0.00    +0.000 C 
ENDBRANCH  67  68
ENDBRANCH  64  67
ENDBRANCH  60  64
ENDBRANCH  59  61
BRANCH  59  71
ATOM     71  CB  LEU A   2      -9.486 -27.398  11.107  0.00  0.00    +0.029 C 
BRANCH  71  72
ATOM     72  CG  LEU A   2      -8.814 -28.638  10.518  0.00  0.00    +0.002 C 
ATOM     73  CD2 LEU A   2      -9.560 -29.851  11.013  0.00  0.00    +0.000 C 
ATOM     74  CD1 LEU A   2      -8.742 -28.592   8.968  0.00  0.00    +0.000 C 
ENDBRANCH  71  72
ENDBRANCH  59  71
ENDBRANCH  55  59
ENDBRANCH  54  57
BRANCH  54  75
ATOM     75  CB  ASP A   3      -9.317 -21.615  11.158  0.00  0.00    +0.143 C 
BRANCH  75  76
ATOM     76  CG  ASP A   3      -9.680 -20.319  11.818  0.00  0.00    +0.367 C 
ATOM     77  OD2 ASP A   3     -10.682 -20.252  12.552  0.00  0.00    -0.246 OA
ATOM     78  OD1 ASP A   3      -9.015 -19.302  11.674  0.00  0.00    -0.246 OA
ENDBRANCH  75  76
ENDBRANCH  54  75
ENDBRANCH  50  54
ENDBRANCH  49  51
BRANCH  49  79
ATOM     79  CB  THR A   4     -15.186 -22.955  12.028  0.00  0.00    +0.137 C 
ATOM     80  CG2 THR A   4     -15.030 -24.413  11.921  0.00  0.00    +0.034 C 
BRANCH  79  81
ATOM     81  OG1 THR A   4     -14.928 -22.621  13.399  0.00  0.00    -0.382 OA
ATOM     82  HG1 THR A   4     -14.994 -21.640  13.517  0.00  0.00    +0.210 HD
ENDBRANCH  79  81
ENDBRANCH  49  79
ENDBRANCH  45  49
ENDBRANCH  44  46
ENDBRANCH   1  44
TORSDOF 35
REMARK  Name = ../refined-set-2016/2p3c/2p3c_pocket.pdb
REMARK  254 active torsions:
REMARK  status: ('A' for Active; 'I' for Inactive)
REMARK    1  A    between atoms: _1  and  _3
REMARK    2  A    between atoms: _3  and  _4
REMARK    3  A    between atoms: _3  and  _6
REMARK    4  A    between atoms: _6  and  _7
REMARK    5  A    between atoms: _7  and  _8
REMARK    6  A    between atoms: _8  and  _9
REMARK    7  A    between atoms: _9  and  _10
REMARK    8  A    between atoms: _14  and  _16
REMARK    9  A    between atoms: _16  and  _17
REMARK   10  A    between atoms: _16  and  _19
REMARK   11  A    between atoms: _19  and  _20
REMARK   12  A    between atoms: _20  and  _21
REMARK   13  A    between atoms: _21  and  _22
REMARK   14  A    between atoms: _31  and  _33
REMARK   15  A    between atoms: _33  and  _34
REMARK   16  A    between atoms: _33  and  _36
REMARK   17  A    between atoms: _36  and  _37
REMARK   18  A    between atoms: _40  and  _42
REMARK   19  A    between atoms: _42  and  _43
REMARK   20  A    between atoms: _42  and  _45
REMARK   21  A    between atoms: _45  and  _46
REMARK   22  A    between atoms: _49  and  _51
REMARK   23  A    between atoms: _51  and  _52
REMARK   24  A    between atoms: _51  and  _54
REMARK   25  A    between atoms: _54  and  _55
REMARK   26  A    between atoms: _58  and  _60
REMARK   27  A    between atoms: _60  and  _61
REMARK   28  A    between atoms: _60  and  _63
REMARK   29  A    between atoms: _63  and  _64
REMARK   30  A    between atoms: _67  and  _69
REMARK   31  A    between atoms: _69  and  _70
REMARK   32  A    between atoms: _72  and  _74
REMARK   33  A    between atoms: _74  and  _75
REMARK   34  A    between atoms: _78  and  _80
REMARK   35  A    between atoms: _80  and  _81
REMARK   36  A    between atoms: _80  and  _83
REMARK   37  A    between atoms: _83  and  _84
REMARK   38  A    between atoms: _87  and  _89
REMARK   39  A    between atoms: _89  and  _90
REMARK   40  A    between atoms: _89  and  _92
REMARK   41  A    between atoms: _92  and  _93
REMARK   42  A    between atoms: _96  and  _98
REMARK   43  A    between atoms: _98  and  _99
REMARK   44  A    between atoms: _98  and  _101
REMARK   45  A    between atoms: _101  and  _102
REMARK   46  A    between atoms: _105  and  _107
REMARK   47  A    between atoms: _107  and  _108
REMARK   48  A    between atoms: _107  and  _110
REMARK   49  A    between atoms: _113  and  _115
REMARK   50  A    between atoms: _115  and  _116
REMARK   51  A    between atoms: _115  and  _118
REMARK   52  A    between atoms: _118  and  _119
REMARK   53  A    between atoms: _119  and  _120
REMARK   54  A    between atoms: _120  and  _121
REMARK   55  A    between atoms: _121  and  _122
REMARK   56  A    between atoms: _126  and  _128
REMARK   57  A    between atoms: _128  and  _129
REMARK   58  A    between atoms: _128  and  _131
REMARK   59  A    between atoms: _131  and  _132
REMARK   60  A    between atoms: _132  and  _133
REMARK   61  A    between atoms: _135  and  _137
REMARK   62  A    between atoms: _137  and  _138
REMARK   63  A    between atoms: _137  and  _140
REMARK   64  A    between atoms: _140  and  _141
REMARK   65  A    between atoms: _144  and  _146
REMARK   66  A    between atoms: _146  and  _147
REMARK   67  A    between atoms: _149  and  _151
REMARK   68  A    between atoms: _151  and  _152
REMARK   69  A    between atoms: _154  and  _156
REMARK   70  A    between atoms: _156  and  _157
REMARK   71  A    between atoms: _156  and  _159
REMARK   72  A    between atoms: _159  and  _160
REMARK   73  A    between atoms: _163  and  _165
REMARK   74  A    between atoms: _165  and  _166
REMARK   75  A    between atoms: _168  and  _170
REMARK   76  A    between atoms: _170  and  _171
REMARK   77  A    between atoms: _173  and  _175
REMARK   78  A    between atoms: _175  and  _176
REMARK   79  A    between atoms: _175  and  _178
REMARK   80  A    between atoms: _178  and  _179
REMARK   81  A    between atoms: _185  and  _187
REMARK   82  A    between atoms: _187  and  _188
REMARK   83  A    between atoms: _187  and  _190
REMARK   84  A    between atoms: _190  and  _191
REMARK   85  A    between atoms: _194  and  _196
REMARK   86  A    between atoms: _196  and  _197
REMARK   87  A    between atoms: _196  and  _199
REMARK   88  A    between atoms: _202  and  _204
REMARK   89  A    between atoms: _204  and  _205
REMARK   90  A    between atoms: _204  and  _207
REMARK   91  A    between atoms: _207  and  _208
REMARK   92  A    between atoms: _208  and  _209
REMARK   93  A    between atoms: _214  and  _216
REMARK   94  A    between atoms: _216  and  _217
REMARK   95  A    between atoms: _216  and  _219
REMARK   96  A    between atoms: _219  and  _220
REMARK   97  A    between atoms: _224  and  _225
REMARK   98  A    between atoms: _230  and  _232
REMARK   99  A    between atoms: _232  and  _233
REMARK  100  A    between atoms: _232  and  _235
REMARK  101  A    between atoms: _235  and  _236
REMARK  102  A    between atoms: _240  and  _241
REMARK  103  A    between atoms: _246  and  _248
REMARK  104  A    between atoms: _248  and  _249
REMARK  105  A    between atoms: _248  and  _251
REMARK  106  A    between atoms: _254  and  _256
REMARK  107  A    between atoms: _256  and  _257
REMARK  108  A    between atoms: _256  and  _259
REMARK  109  A    between atoms: _259  and  _260
REMARK  110  A    between atoms: _265  and  _267
REMARK  111  A    between atoms: _267  and  _268
REMARK  112  A    between atoms: _267  and  _270
REMARK  113  A    between atoms: _270  and  _271
REMARK  114  A    between atoms: _274  and  _276
REMARK  115  A    between atoms: _276  and  _277
REMARK  116  A    between atoms: _276  and  _279
REMARK  117  A    between atoms: _279  and  _280
REMARK  118  A    between atoms: _283  and  _285
REMARK  119  A    between atoms: _285  and  _286
REMARK  120  A    between atoms: _288  and  _290
REMARK  121  A    between atoms: _290  and  _291
REMARK  122  A    between atoms: _290  and  _293
REMARK  123  A    between atoms: _293  and  _294
REMARK  124  A    between atoms: _294  and  _295
REMARK  125  A    between atoms: _295  and  _296
REMARK  126  A    between atoms: _305  and  _307
REMARK  127  A    between atoms: _307  and  _308
REMARK  128  A    between atoms: _307  and  _310
REMARK  129  A    between atoms: _310  and  _311
REMARK  130  A    between atoms: _316  and  _318
REMARK  131  A    between atoms: _318  and  _319
REMARK  132  A    between atoms: _318  and  _321
REMARK  133  A    between atoms: _321  and  _322
REMARK  134  A    between atoms: _322  and  _323
REMARK  135  A    between atoms: _323  and  _324
REMARK  136  A    between atoms: _324  and  _325
REMARK  137  A    between atoms: _329  and  _331
REMARK  138  A    between atoms: _331  and  _332
REMARK  139  A    between atoms: _331  and  _334
REMARK  140  A    between atoms: _334  and  _335
REMARK  141  A    between atoms: _335  and  _336
REMARK  142  A    between atoms: _336  and  _337
REMARK  143  A    between atoms: _346  and  _348
REMARK  144  A    between atoms: _348  and  _349
REMARK  145  A    between atoms: _348  and  _351
REMARK  146  A    between atoms: _351  and  _352
REMARK  147  A    between atoms: _355  and  _357
REMARK  148  A    between atoms: _357  and  _358
REMARK  149  A    between atoms: _357  and  _360
REMARK  150  A    between atoms: _360  and  _361
REMARK  151  A    between atoms: _364  and  _366
REMARK  152  A    between atoms: _366  and  _367
REMARK  153  A    between atoms: _366  and  _369
REMARK  154  A    between atoms: _369  and  _370
REMARK  155  A    between atoms: _373  and  _375
REMARK  156  A    between atoms: _375  and  _376
REMARK  157  A    between atoms: _375  and  _378
REMARK  158  A    between atoms: _378  and  _379
REMARK  159  A    between atoms: _382  and  _384
REMARK  160  A    between atoms: _384  and  _385
REMARK  161  A    between atoms: _387  and  _389
REMARK  162  A    between atoms: _389  and  _390
REMARK  163  A    between atoms: _393  and  _395
REMARK  164  A    between atoms: _395  and  _396
REMARK  165  A    between atoms: _395  and  _398
REMARK  166  A    between atoms: _398  and  _399
REMARK  167  A    between atoms: _402  and  _404
REMARK  168  A    between atoms: _404  and  _405
REMARK  169  A    between atoms: _404  and  _407
REMARK  170  A    between atoms: _407  and  _408
REMARK  171  A    between atoms: _411  and  _413
REMARK  172  A    between atoms: _413  and  _414
REMARK  173  A    between atoms: _413  and  _416
REMARK  174  A    between atoms: _416  and  _417
REMARK  175  A    between atoms: _420  and  _422
REMARK  176  A    between atoms: _422  and  _423
REMARK  177  A    between atoms: _422  and  _425
REMARK  178  A    between atoms: _428  and  _430
REMARK  179  A    between atoms: _430  and  _431
REMARK  180  A    between atoms: _430  and  _433
REMARK  181  A    between atoms: _433  and  _434
REMARK  182  A    between atoms: _434  and  _435
REMARK  183  A    between atoms: _435  and  _436
REMARK  184  A    between atoms: _436  and  _437
REMARK  185  A    between atoms: _441  and  _443
REMARK  186  A    between atoms: _443  and  _444
REMARK  187  A    between atoms: _443  and  _446
REMARK  188  A    between atoms: _446  and  _447
REMARK  189  A    between atoms: _447  and  _448
REMARK  190  A    between atoms: _450  and  _452
REMARK  191  A    between atoms: _452  and  _453
REMARK  192  A    between atoms: _452  and  _455
REMARK  193  A    between atoms: _455  and  _456
REMARK  194  A    between atoms: _459  and  _461
REMARK  195  A    between atoms: _461  and  _462
REMARK  196  A    between atoms: _464  and  _466
REMARK  197  A    between atoms: _466  and  _467
REMARK  198  A    between atoms: _469  and  _471
REMARK  199  A    between atoms: _471  and  _472
REMARK  200  A    between atoms: _471  and  _474
REMARK  201  A    between atoms: _474  and  _475
REMARK  202  A    between atoms: _478  and  _480
REMARK  203  A    between atoms: _480  and  _481
REMARK  204  A    between atoms: _483  and  _485
REMARK  205  A    between atoms: _485  and  _486
REMARK  206  A    between atoms: _488  and  _490
REMARK  207  A    between atoms: _490  and  _491
REMARK  208  A    between atoms: _490  and  _493
REMARK  209  A    between atoms: _493  and  _494
REMARK  210  A    between atoms: _500  and  _502
REMARK  211  A    between atoms: _502  and  _503
REMARK  212  A    between atoms: _502  and  _505
REMARK  213  A    between atoms: _505  and  _506
REMARK  214  A    between atoms: _509  and  _511
REMARK  215  A    between atoms: _511  and  _512
REMARK  216  A    between atoms: _511  and  _514
REMARK  217  A    between atoms: _517  and  _519
REMARK  218  A    between atoms: _519  and  _520
REMARK  219  A    between atoms: _519  and  _522
REMARK  220  A    between atoms: _522  and  _523
REMARK  221  A    between atoms: _523  and  _524
REMARK  222  A    between atoms: _529  and  _531
REMARK  223  A    between atoms: _531  and  _532
REMARK  224  A    between atoms: _531  and  _534
REMARK  225  A    between atoms: _534  and  _535
REMARK  226  A    between atoms: _539  and  _540
REMARK  227  A    between atoms: _545  and  _547
REMARK  228  A    between atoms: _547  and  _548
REMARK  229  A    between atoms: _547  and  _550
REMARK  230  A    between atoms: _550  and  _551
REMARK  231  A    between atoms: _555  and  _556
REMARK  232  A    between atoms: _561  and  _563
REMARK  233  A    between atoms: _563  and  _564
REMARK  234  A    between atoms: _563  and  _566
REMARK  235  A    between atoms: _569  and  _571
REMARK  236  A    between atoms: _571  and  _572
REMARK  237  A    between atoms: _571  and  _574
REMARK  238  A    between atoms: _574  and  _575
REMARK  239  A    between atoms: _580  and  _582
REMARK  240  A    between atoms: _582  and  _583
REMARK  241  A    between atoms: _582  and  _585
REMARK  242  A    between atoms: _585  and  _586
REMARK  243  A    between atoms: _589  and  _591
REMARK  244  A    between atoms: _591  and  _592
REMARK  245  A    between atoms: _591  and  _594
REMARK  246  A    between atoms: _594  and  _595
REMARK  247  A    between atoms: _598  and  _600
REMARK  248  A    between atoms: _600  and  _601
REMARK  249  A    between atoms: _603  and  _605
REMARK  250  A    between atoms: _605  and  _606
REMARK  251  A    between atoms: _605  and  _608
REMARK  252  A    between atoms: _608  and  _609
REMARK  253  A    between atoms: _609  and  _610
REMARK  254  A    between atoms: _610  and  _611
REMARK                            x       y       z     vdW  Elec       q    Type
REMARK                         _______ _______ _______ _____ _____    ______ ____
ROOT
ATOM      1  C   GLY A   5      -8.552  -9.476  13.028  0.00  0.00    +0.243 C 
ATOM      2  N   ILE A   6      -8.261 -10.084  14.173  0.00  0.00    -0.297 N 
ATOM      3  H   ILE A   6      -8.103 -11.112  14.176  0.00  0.00    +0.150 HD
ATOM      4  O   GLY A   5      -8.897  -8.285  12.943  0.00  0.00    -0.273 OA
ENDROOT
BRANCH   2   5
ATOM      5  CA  ILE A   6      -8.158  -9.348  15.422  0.00  0.00    +0.149 C 
BRANCH   5   6
ATOM      6  C   ILE A   6      -6.920  -8.447  15.247  0.00  0.00    +0.241 C 
ATOM      7  N   GLY A   7      -6.976  -7.225  15.745  0.00  0.00    -0.295 N 
ATOM      8  H   GLY A   7      -7.855  -6.891  16.190  0.00  0.00    +0.150 HD
ATOM      9  O   ILE A   6      -5.943  -8.842  14.602  0.00  0.00    -0.273 OA
BRANCH   7  10
ATOM     10  CA  GLY A   7      -5.813  -6.332  15.678  0.00  0.00    +0.176 C 
BRANCH  10  11
ATOM     11  C   GLY A   7      -5.379  -5.763  14.328  0.00  0.00    +0.243 C 
ATOM     12  O   GLY A   7      -4.408  -5.000  14.266  0.00  0.00    -0.273 OA
ATOM     13  N   GLY A   8      -6.068  -6.123  13.246  0.00  0.00    -0.295 N 
ATOM     14  H   GLY A   8      -6.797  -6.862  13.318  0.00  0.00    +0.150 HD
BRANCH  13  15
ATOM     15  CA  GLY A   8      -5.804  -5.483  11.954  0.00  0.00    +0.176 C 
BRANCH  15  16
ATOM     16  C   GLY A   8      -5.826  -6.309  10.679  0.00  0.00    +0.243 C 
ATOM     17  O   GLY A   8      -6.427  -7.374  10.623  0.00  0.00    -0.273 OA
ATOM     18  N   PHE A   9      -5.170  -5.790   9.635  0.00  0.00    -0.297 N 
ATOM     19  H   PHE A   9      -4.602  -4.932   9.788  0.00  0.00    +0.150 HD
BRANCH  18  20
ATOM     20  CA  PHE A   9      -5.208  -6.368   8.277  0.00  0.00    +0.153 C 
BRANCH  20  21
ATOM     21  C   PHE A   9      -3.801  -6.732   7.749  0.00  0.00    +0.241 C 
ATOM     22  O   PHE A   9      -2.851  -5.968   7.930  0.00  0.00    -0.273 OA
ATOM     23  N   ILE A  10      -3.666  -7.899   7.110  0.00  0.00    -0.298 N 
ATOM     24  H   ILE A  10      -4.466  -8.563   7.090  0.00  0.00    +0.150 HD
BRANCH  23  25
ATOM     25  CA  ILE A  10      -2.417  -8.261   6.439  0.00  0.00    +0.137 C 
BRANCH  25  26
ATOM     26  C   ILE A  10      -2.630  -8.294   4.931  0.00  0.00    +0.227 C 
ATOM     27  O   ILE A  10      -3.732  -8.580   4.444  0.00  0.00    -0.286 OA
ENDBRANCH  25  26
BRANCH  25  28
ATOM     28  CB  ILE A  10      -1.793  -9.594   6.948  0.00  0.00    +0.026 C 
ATOM     29  CG2 ILE A  10      -1.268  -9.436   8.372  0.00  0.00    +0.002 C 
BRANCH  28  30
ATOM     30  CG1 ILE A  10      -2.770 -10.768   6.811  0.00  0.00    +0.002 C 
ATOM     31  CD1 ILE A  10      -2.089 -12.142   6.665  0.00  0.00    +0.000 C 
ENDBRANCH  28  30
ENDBRANCH  25  28
ENDBRANCH  23  25
ENDBRANCH  20  21
BRANCH  20  32
ATOM     32  CB  PHE A   9      -5.877  -5.382   7.298  0.00  0.00    +0.055 C 
BRANCH  32  33
ATOM     33  CG  PHE A   9      -7.399  -5.351   7.365  0.00  0.00    -0.020 A 
ATOM     34  CD2 PHE A   9      -8.060  -4.658   8.378  0.00  0.00    -0.004 A 
ATOM     35  CE2 PHE A   9      -9.459  -4.626   8.431  0.00  0.00    -0.000 A 
ATOM     36  CZ  PHE A   9     -10.214  -5.284   7.457  0.00  0.00    -0.000 A 
ATOM     37  CE1 PHE A   9      -9.568  -5.975   6.432  0.00  0.00    -0.000 A 
ATOM     38  CD1 PHE A   9      -8.168  -5.994   6.385  0.00  0.00    -0.004 A 
ENDBRANCH  32  33
ENDBRANCH  20  32
ENDBRANCH  18  20
ENDBRANCH  15  16
ENDBRANCH  13  15
ENDBRANCH  10  11
ENDBRANCH   7  10
ENDBRANCH   5   6
BRANCH   5  39
ATOM     39  CB  ILE A   6      -8.063 -10.343  16.637  0.00  0.00    +0.027 C 
ATOM     40  CG2 ILE A   6      -6.722 -10.286  17.304  0.00  0.00    +0.002 C 
BRANCH  39  41
ATOM     41  CG1 ILE A   6      -9.123 -10.036  17.690  0.00  0.00    +0.002 C 
ATOM     42  CD1 ILE A   6     -10.350 -10.856  17.591  0.00  0.00    +0.000 C 
ENDBRANCH  39  41
ENDBRANCH   5  39
ENDBRANCH   2   5
BRANCH   1  43
ATOM     43  CA  GLY A   5      -8.484 -10.334  11.802  0.00  0.00    +0.176 C 
BRANCH  43  45
ATOM     44  C   GLY A   4      -8.784  -9.789   9.460  0.00  0.00    +0.243 C 
ATOM     45  N   GLY A   5      -8.283  -9.482  10.645  0.00  0.00    -0.295 N 
ATOM     46  H   GLY A   5      -7.731  -8.607  10.750  0.00  0.00    +0.150 HD
ATOM     47  O   GLY A   4      -9.359 -10.852   9.215  0.00  0.00    -0.273 OA
BRANCH  44  48
ATOM     48  CA  GLY A   4      -8.598  -8.734   8.408  0.00  0.00    +0.176 C 
BRANCH  48  50
ATOM     49  C   ILE A   3      -7.420  -9.405   6.422  0.00  0.00    +0.241 C 
ATOM     50  N   GLY A   4      -8.559  -9.301   7.083  0.00  0.00    -0.295 N 
ATOM     51  H   GLY A   4      -9.440  -9.633   6.641  0.00  0.00    +0.150 HD
ATOM     52  O   ILE A   3      -6.352  -8.995   6.870  0.00  0.00    -0.273 OA
BRANCH  49  53
ATOM     53  CA  ILE A   3      -7.508 -10.056   5.050  0.00  0.00    +0.149 C 
BRANCH  53  55
ATOM     54  C   MET A   2      -7.040  -8.852   3.014  0.00  0.00    +0.241 C 
ATOM     55  N   ILE A   3      -6.580  -9.432   4.115  0.00  0.00    -0.297 N 
ATOM     56  H   ILE A   3      -5.559  -9.441   4.311  0.00  0.00    +0.150 HD
ATOM     57  O   MET A   2      -8.182  -9.033   2.598  0.00  0.00    -0.273 OA
BRANCH  54  58
ATOM     58  CA  MET A   2      -6.083  -7.957   2.237  0.00  0.00    +0.149 C 
BRANCH  58  60
ATOM     59  C   LYS A   1      -5.173  -8.748   0.115  0.00  0.00    +0.238 C 
ATOM     60  N   MET A   2      -6.207  -8.314   0.827  0.00  0.00    -0.297 N 
ATOM     61  H   MET A   2      -7.135  -8.226   0.365  0.00  0.00    +0.150 HD
ATOM     62  O   LYS A   1      -4.038  -8.771   0.554  0.00  0.00    -0.274 OA
BRANCH  59  63
ATOM     63  CA  LYS A   1      -5.458  -9.164  -1.314  0.00  0.00    +0.145 C 
BRANCH  63  64
ATOM     64  N   LYS A   1      -4.256  -9.031  -2.134  0.00  0.00    -0.238 NA
ATOM     65  H   LYS A   1      -3.324  -9.166  -1.694  0.00  0.00    +0.142 HD
ENDBRANCH  63  64
BRANCH  63  66
ATOM     66  CB  LYS A   1      -5.992 -10.597  -1.354  0.00  0.00    +0.026 C 
BRANCH  66  67
ATOM     67  CG  LYS A   1      -7.506 -10.684  -1.534  0.00  0.00    -0.000 C 
BRANCH  67  68
ATOM     68  CD  LYS A   1      -8.161 -11.653  -0.536  0.00  0.00    -0.024 C 
BRANCH  68  69
ATOM     69  CE  LYS A   1      -9.531 -11.124  -0.083  0.00  0.00    -0.086 C 
BRANCH  69  70
ATOM     70  NZ  LYS A   1     -10.518 -12.204   0.162  0.00  0.00    +0.380 N 
ATOM     71  HZ1 LYS A   1     -10.161 -12.836   0.907  0.00  0.00    -0.089 HD
ATOM     72  HZ2 LYS A   1     -11.421 -11.785   0.464  0.00  0.00    -0.089 HD
ATOM     73  HZ3 LYS A   1     -10.662 -12.746  -0.714  0.00  0.00    -0.089 HD
ENDBRANCH  69  70
ENDBRANCH  68  69
ENDBRANCH  67  68
ENDBRANCH  66  67
ENDBRANCH  63  66
ENDBRANCH  59  63
ENDBRANCH  58  60
BRANCH  58  74
ATOM     74  CB  MET A   2      -6.449  -6.483   2.472  0.00  0.00    +0.041 C 
BRANCH  74  75
ATOM     75  CG  MET A   2      -5.618  -5.463   1.680  0.00  0.00    +0.060 C 
BRANCH  75  76
ATOM     76  SD  MET A   2      -4.186  -4.780   2.556  0.00  0.00    -0.139 S 
ATOM     77  CE  MET A   2      -3.666  -3.501   1.398  0.00  0.00    +0.069 C 
ENDBRANCH  75  76
ENDBRANCH  74  75
ENDBRANCH  58  74
ENDBRANCH  54  58
ENDBRANCH  53  55
BRANCH  53  78
ATOM     78  CB  ILE A   3      -7.337 -11.599   5.136  0.00  0.00    +0.027 C 
ATOM     79  CG2 ILE A   3      -7.520 -12.236   3.767  0.00  0.00    +0.002 C 
BRANCH  78  80
ATOM     80  CG1 ILE A   3      -5.980 -11.943   5.726  0.00  0.00    +0.002 C 
ATOM     81  CD1 ILE A   3      -5.628 -13.390   5.687  0.00  0.00    +0.000 C 
ENDBRANCH  78  80
ENDBRANCH  53  78
ENDBRANCH  49  53
ENDBRANCH  48  50
ENDBRANCH  44  48
ENDBRANCH  43  45
ENDBRANCH   1  43
TORSDOF 36
REMARK  Name = ../refined-set-2016/2p3c/2p3c_pocket.pdb
REMARK  254 active torsions:
REMARK  status: ('A' for Active; 'I' for Inactive)
REMARK    1  A    between atoms: _1  and  _3
REMARK    2  A    between atoms: _3  and  _4
REMARK    3  A    between atoms: _3  and  _6
REMARK    4  A    between atoms: _6  and  _7
REMARK    5  A    between atoms: _7  and  _8
REMARK    6  A    between atoms: _8  and  _9
REMARK    7  A    between atoms: _9  and  _10
REMARK    8  A    between atoms: _14  and  _16
REMARK    9  A    between atoms: _16  and  _17
REMARK   10  A    between atoms: _16  and  _19
REMARK   11  A    between atoms: _19  and  _20
REMARK   12  A    between atoms: _20  and  _21
REMARK   13  A    between atoms: _21  and  _22
REMARK   14  A    between atoms: _31  and  _33
REMARK   15  A    between atoms: _33  and  _34
REMARK   16  A    between atoms: _33  and  _36
REMARK   17  A    between atoms: _36  and  _37
REMARK   18  A    between atoms: _40  and  _42
REMARK   19  A    between atoms: _42  and  _43
REMARK   20  A    between atoms: _42  and  _45
REMARK   21  A    between atoms: _45  and  _46
REMARK   22  A    between atoms: _49  and  _51
REMARK   23  A    between atoms: _51  and  _52
REMARK   24  A    between atoms: _51  and  _54
REMARK   25  A    between atoms: _54  and  _55
REMARK   26  A    between atoms: _58  and  _60
REMARK   27  A    between atoms: _60  and  _61
REMARK   28  A    between atoms: _60  and  _63
REMARK   29  A    between atoms: _63  and  _64
REMARK   30  A    between atoms: _67  and  _69
REMARK   31  A    between atoms: _69  and  _70
REMARK   32  A    between atoms: _72  and  _74
REMARK   33  A    between atoms: _74  and  _75
REMARK   34  A    between atoms: _78  and  _80
REMARK   35  A    between atoms: _80  and  _81
REMARK   36  A    between atoms: _80  and  _83
REMARK   37  A    between atoms: _83  and  _84
REMARK   38  A    between atoms: _87  and  _89
REMARK   39  A    between atoms: _89  and  _90
REMARK   40  A    between atoms: _89  and  _92
REMARK   41  A    between atoms: _92  and  _93
REMARK   42  A    between atoms: _96  and  _98
REMARK   43  A    between atoms: _98  and  _99
REMARK   44  A    between atoms: _98  and  _101
REMARK   45  A    between atoms: _101  and  _102
REMARK   46  A    between atoms: _105  and  _107
REMARK   47  A    between atoms: _107  and  _108
REMARK   48  A    between atoms: _107  and  _110
REMARK   49  A    between atoms: _113  and  _115
REMARK   50  A    between atoms: _115  and  _116
REMARK   51  A    between atoms: _115  and  _118
REMARK   52  A    between atoms: _118  and  _119
REMARK   53  A    between atoms: _119  and  _120
REMARK   54  A    between atoms: _120  and  _121
REMARK   55  A    between atoms: _121  and  _122
REMARK   56  A    between atoms: _126  and  _128
REMARK   57  A    between atoms: _128  and  _129
REMARK   58  A    between atoms: _128  and  _131
REMARK   59  A    between atoms: _131  and  _132
REMARK   60  A    between atoms: _132  and  _133
REMARK   61  A    between atoms: _135  and  _137
REMARK   62  A    between atoms: _137  and  _138
REMARK   63  A    between atoms: _137  and  _140
REMARK   64  A    between atoms: _140  and  _141
REMARK   65  A    between atoms: _144  and  _146
REMARK   66  A    between atoms: _146  and  _147
REMARK   67  A    between atoms: _149  and  _151
REMARK   68  A    between atoms: _151  and  _152
REMARK   69  A    between atoms: _154  and  _156
REMARK   70  A    between atoms: _156  and  _157
REMARK   71  A    between atoms: _156  and  _159
REMARK   72  A    between atoms: _159  and  _160
REMARK   73  A    between atoms: _163  and  _165
REMARK   74  A    between atoms: _165  and  _166
REMARK   75  A    between atoms: _168  and  _170
REMARK   76  A    between atoms: _170  and  _171
REMARK   77  A    between atoms: _173  and  _175
REMARK   78  A    between atoms: _175  and  _176
REMARK   79  A    between atoms: _175  and  _178
REMARK   80  A    between atoms: _178  and  _179
REMARK   81  A    between atoms: _185  and  _187
REMARK   82  A    between atoms: _187  and  _188
REMARK   83  A    between atoms: _187  and  _190
REMARK   84  A    between atoms: _190  and  _191
REMARK   85  A    between atoms: _194  and  _196
REMARK   86  A    between atoms: _196  and  _197
REMARK   87  A    between atoms: _196  and  _199
REMARK   88  A    between atoms: _202  and  _204
REMARK   89  A    between atoms: _204  and  _205
REMARK   90  A    between atoms: _204  and  _207
REMARK   91  A    between atoms: _207  and  _208
REMARK   92  A    between atoms: _208  and  _209
REMARK   93  A    between atoms: _214  and  _216
REMARK   94  A    between atoms: _216  and  _217
REMARK   95  A    between atoms: _216  and  _219
REMARK   96  A    between atoms: _219  and  _220
REMARK   97  A    between atoms: _224  and  _225
REMARK   98  A    between atoms: _230  and  _232
REMARK   99  A    between atoms: _232  and  _233
REMARK  100  A    between atoms: _232  and  _235
REMARK  101  A    between atoms: _235  and  _236
REMARK  102  A    between atoms: _240  and  _241
REMARK  103  A    between atoms: _246  and  _248
REMARK  104  A    between atoms: _248  and  _249
REMARK  105  A    between atoms: _248  and  _251
REMARK  106  A    between atoms: _254  and  _256
REMARK  107  A    between atoms: _256  and  _257
REMARK  108  A    between atoms: _256  and  _259
REMARK  109  A    between atoms: _259  and  _260
REMARK  110  A    between atoms: _265  and  _267
REMARK  111  A    between atoms: _267  and  _268
REMARK  112  A    between atoms: _267  and  _270
REMARK  113  A    between atoms: _270  and  _271
REMARK  114  A    between atoms: _274  and  _276
REMARK  115  A    between atoms: _276  and  _277
REMARK  116  A    between atoms: _276  and  _279
REMARK  117  A    between atoms: _279  and  _280
REMARK  118  A    between atoms: _283  and  _285
REMARK  119  A    between atoms: _285  and  _286
REMARK  120  A    between atoms: _288  and  _290
REMARK  121  A    between atoms: _290  and  _291
REMARK  122  A    between atoms: _290  and  _293
REMARK  123  A    between atoms: _293  and  _294
REMARK  124  A    between atoms: _294  and  _295
REMARK  125  A    between atoms: _295  and  _296
REMARK  126  A    between atoms: _305  and  _307
REMARK  127  A    between atoms: _307  and  _308
REMARK  128  A    between atoms: _307  and  _310
REMARK  129  A    between atoms: _310  and  _311
REMARK  130  A    between atoms: _316  and  _318
REMARK  131  A    between atoms: _318  and  _319
REMARK  132  A    between atoms: _318  and  _321
REMARK  133  A    between atoms: _321  and  _322
REMARK  134  A    between atoms: _322  and  _323
REMARK  135  A    between atoms: _323  and  _324
REMARK  136  A    between atoms: _324  and  _325
REMARK  137  A    between atoms: _329  and  _331
REMARK  138  A    between atoms: _331  and  _332
REMARK  139  A    between atoms: _331  and  _334
REMARK  140  A    between atoms: _334  and  _335
REMARK  141  A    between atoms: _335  and  _336
REMARK  142  A    between atoms: _336  and  _337
REMARK  143  A    between atoms: _346  and  _348
REMARK  144  A    between atoms: _348  and  _349
REMARK  145  A    between atoms: _348  and  _351
REMARK  146  A    between atoms: _351  and  _352
REMARK  147  A    between atoms: _355  and  _357
REMARK  148  A    between atoms: _357  and  _358
REMARK  149  A    between atoms: _357  and  _360
REMARK  150  A    between atoms: _360  and  _361
REMARK  151  A    between atoms: _364  and  _366
REMARK  152  A    between atoms: _366  and  _367
REMARK  153  A    between atoms: _366  and  _369
REMARK  154  A    between atoms: _369  and  _370
REMARK  155  A    between atoms: _373  and  _375
REMARK  156  A    between atoms: _375  and  _376
REMARK  157  A    between atoms: _375  and  _378
REMARK  158  A    between atoms: _378  and  _379
REMARK  159  A    between atoms: _382  and  _384
REMARK  160  A    between atoms: _384  and  _385
REMARK  161  A    between atoms: _387  and  _389
REMARK  162  A    between atoms: _389  and  _390
REMARK  163  A    between atoms: _393  and  _395
REMARK  164  A    between atoms: _395  and  _396
REMARK  165  A    between atoms: _395  and  _398
REMARK  166  A    between atoms: _398  and  _399
REMARK  167  A    between atoms: _402  and  _404
REMARK  168  A    between atoms: _404  and  _405
REMARK  169  A    between atoms: _404  and  _407
REMARK  170  A    between atoms: _407  and  _408
REMARK  171  A    between atoms: _411  and  _413
REMARK  172  A    between atoms: _413  and  _414
REMARK  173  A    between atoms: _413  and  _416
REMARK  174  A    between atoms: _416  and  _417
REMARK  175  A    between atoms: _420  and  _422
REMARK  176  A    between atoms: _422  and  _423
REMARK  177  A    between atoms: _422  and  _425
REMARK  178  A    between atoms: _428  and  _430
REMARK  179  A    between atoms: _430  and  _431
REMARK  180  A    between atoms: _430  and  _433
REMARK  181  A    between atoms: _433  and  _434
REMARK  182  A    between atoms: _434  and  _435
REMARK  183  A    between atoms: _435  and  _436
REMARK  184  A    between atoms: _436  and  _437
REMARK  185  A    between atoms: _441  and  _443
REMARK  186  A    between atoms: _443  and  _444
REMARK  187  A    between atoms: _443  and  _446
REMARK  188  A    between atoms: _446  and  _447
REMARK  189  A    between atoms: _447  and  _448
REMARK  190  A    between atoms: _450  and  _452
REMARK  191  A    between atoms: _452  and  _453
REMARK  192  A    between atoms: _452  and  _455
REMARK  193  A    between atoms: _455  and  _456
REMARK  194  A    between atoms: _459  and  _461
REMARK  195  A    between atoms: _461  and  _462
REMARK  196  A    between atoms: _464  and  _466
REMARK  197  A    between atoms: _466  and  _467
REMARK  198  A    between atoms: _469  and  _471
REMARK  199  A    between atoms: _471  and  _472
REMARK  200  A    between atoms: _471  and  _474
REMARK  201  A    between atoms: _474  and  _475
REMARK  202  A    between atoms: _478  and  _480
REMARK  203  A    between atoms: _480  and  _481
REMARK  204  A    between atoms: _483  and  _485
REMARK  205  A    between atoms: _485  and  _486
REMARK  206  A    between atoms: _488  and  _490
REMARK  207  A    between atoms: _490  and  _491
REMARK  208  A    between atoms: _490  and  _493
REMARK  209  A    between atoms: _493  and  _494
REMARK  210  A    between atoms: _500  and  _502
REMARK  211  A    between atoms: _502  and  _503
REMARK  212  A    between atoms: _502  and  _505
REMARK  213  A    between atoms: _505  and  _506
REMARK  214  A    between atoms: _509  and  _511
REMARK  215  A    between atoms: _511  and  _512
REMARK  216  A    between atoms: _511  and  _514
REMARK  217  A    between atoms: _517  and  _519
REMARK  218  A    between atoms: _519  and  _520
REMARK  219  A    between atoms: _519  and  _522
REMARK  220  A    between atoms: _522  and  _523
REMARK  221  A    between atoms: _523  and  _524
REMARK  222  A    between atoms: _529  and  _531
REMARK  223  A    between atoms: _531  and  _532
REMARK  224  A    between atoms: _531  and  _534
REMARK  225  A    between atoms: _534  and  _535
REMARK  226  A    between atoms: _539  and  _540
REMARK  227  A    between atoms: _545  and  _547
REMARK  228  A    between atoms: _547  and  _548
REMARK  229  A    between atoms: _547  and  _550
REMARK  230  A    between atoms: _550  and  _551
REMARK  231  A    between atoms: _555  and  _556
REMARK  232  A    between atoms: _561  and  _563
REMARK  233  A    between atoms: _563  and  _564
REMARK  234  A    between atoms: _563  and  _566
REMARK  235  A    between atoms: _569  and  _571
REMARK  236  A    between atoms: _571  and  _572
REMARK  237  A    between atoms: _571  and  _574
REMARK  238  A    between atoms: _574  and  _575
REMARK  239  A    between atoms: _580  and  _582
REMARK  240  A    between atoms: _582  and  _583
REMARK  241  A    between atoms: _582  and  _585
REMARK  242  A    between atoms: _585  and  _586
REMARK  243  A    between atoms: _589  and  _591
REMARK  244  A    between atoms: _591  and  _592
REMARK  245  A    between atoms: _591  and  _594
REMARK  246  A    between atoms: _594  and  _595
REMARK  247  A    between atoms: _598  and  _600
REMARK  248  A    between atoms: _600  and  _601
REMARK  249  A    between atoms: _603  and  _605
REMARK  250  A    between atoms: _605  and  _606
REMARK  251  A    between atoms: _605  and  _608
REMARK  252  A    between atoms: _608  and  _609
REMARK  253  A    between atoms: _609  and  _610
REMARK  254  A    between atoms: _610  and  _611
REMARK                            x       y       z     vdW  Elec       q    Type
REMARK                         _______ _______ _______ _____ _____    ______ ____
ROOT
ATOM      1  CA  VAL A   1      -1.654 -11.503   1.192  0.00  0.00    +0.133 C 
ENDROOT
BRANCH   1   2
ATOM      2  CB  VAL A   1      -2.738 -12.472   1.759  0.00  0.00    +0.023 C 
ATOM      3  CG2 VAL A   1      -2.704 -12.491   3.262  0.00  0.00    +0.002 C 
ATOM      4  CG1 VAL A   1      -4.128 -12.105   1.262  0.00  0.00    +0.002 C 
ENDBRANCH   1   2
BRANCH   1   5
ATOM      5  N   VAL A   1      -1.913 -10.131   1.543  0.00  0.00    -0.239 NA
ATOM      6  H   VAL A   1      -2.634  -9.593   1.021  0.00  0.00    +0.142 HD
ENDBRANCH   1   5
BRANCH   1   7
ATOM      7  C   VAL A   1      -1.570 -11.618  -0.320  0.00  0.00    +0.224 C 
ATOM      8  O   VAL A   1      -2.002 -10.738  -1.050  0.00  0.00    -0.287 OA
ENDBRANCH   1   7
TORSDOF 3
REMARK  Name = ../refined-set-2016/2p3c/2p3c_pocket.pdb
REMARK  254 active torsions:
REMARK  status: ('A' for Active; 'I' for Inactive)
REMARK    1  A    between atoms: _1  and  _3
REMARK    2  A    between atoms: _3  and  _4
REMARK    3  A    between atoms: _3  and  _6
REMARK    4  A    between atoms: _6  and  _7
REMARK    5  A    between atoms: _7  and  _8
REMARK    6  A    between atoms: _8  and  _9
REMARK    7  A    between atoms: _9  and  _10
REMARK    8  A    between atoms: _14  and  _16
REMARK    9  A    between atoms: _16  and  _17
REMARK   10  A    between atoms: _16  and  _19
REMARK   11  A    between atoms: _19  and  _20
REMARK   12  A    between atoms: _20  and  _21
REMARK   13  A    between atoms: _21  and  _22
REMARK   14  A    between atoms: _31  and  _33
REMARK   15  A    between atoms: _33  and  _34
REMARK   16  A    between atoms: _33  and  _36
REMARK   17  A    between atoms: _36  and  _37
REMARK   18  A    between atoms: _40  and  _42
REMARK   19  A    between atoms: _42  and  _43
REMARK   20  A    between atoms: _42  and  _45
REMARK   21  A    between atoms: _45  and  _46
REMARK   22  A    between atoms: _49  and  _51
REMARK   23  A    between atoms: _51  and  _52
REMARK   24  A    between atoms: _51  and  _54
REMARK   25  A    between atoms: _54  and  _55
REMARK   26  A    between atoms: _58  and  _60
REMARK   27  A    between atoms: _60  and  _61
REMARK   28  A    between atoms: _60  and  _63
REMARK   29  A    between atoms: _63  and  _64
REMARK   30  A    between atoms: _67  and  _69
REMARK   31  A    between atoms: _69  and  _70
REMARK   32  A    between atoms: _72  and  _74
REMARK   33  A    between atoms: _74  and  _75
REMARK   34  A    between atoms: _78  and  _80
REMARK   35  A    between atoms: _80  and  _81
REMARK   36  A    between atoms: _80  and  _83
REMARK   37  A    between atoms: _83  and  _84
REMARK   38  A    between atoms: _87  and  _89
REMARK   39  A    between atoms: _89  and  _90
REMARK   40  A    between atoms: _89  and  _92
REMARK   41  A    between atoms: _92  and  _93
REMARK   42  A    between atoms: _96  and  _98
REMARK   43  A    between atoms: _98  and  _99
REMARK   44  A    between atoms: _98  and  _101
REMARK   45  A    between atoms: _101  and  _102
REMARK   46  A    between atoms: _105  and  _107
REMARK   47  A    between atoms: _107  and  _108
REMARK   48  A    between atoms: _107  and  _110
REMARK   49  A    between atoms: _113  and  _115
REMARK   50  A    between atoms: _115  and  _116
REMARK   51  A    between atoms: _115  and  _118
REMARK   52  A    between atoms: _118  and  _119
REMARK   53  A    between atoms: _119  and  _120
REMARK   54  A    between atoms: _120  and  _121
REMARK   55  A    between atoms: _121  and  _122
REMARK   56  A    between atoms: _126  and  _128
REMARK   57  A    between atoms: _128  and  _129
REMARK   58  A    between atoms: _128  and  _131
REMARK   59  A    between atoms: _131  and  _132
REMARK   60  A    between atoms: _132  and  _133
REMARK   61  A    between atoms: _135  and  _137
REMARK   62  A    between atoms: _137  and  _138
REMARK   63  A    between atoms: _137  and  _140
REMARK   64  A    between atoms: _140  and  _141
REMARK   65  A    between atoms: _144  and  _146
REMARK   66  A    between atoms: _146  and  _147
REMARK   67  A    between atoms: _149  and  _151
REMARK   68  A    between atoms: _151  and  _152
REMARK   69  A    between atoms: _154  and  _156
REMARK   70  A    between atoms: _156  and  _157
REMARK   71  A    between atoms: _156  and  _159
REMARK   72  A    between atoms: _159  and  _160
REMARK   73  A    between atoms: _163  and  _165
REMARK   74  A    between atoms: _165  and  _166
REMARK   75  A    between atoms: _168  and  _170
REMARK   76  A    between atoms: _170  and  _171
REMARK   77  A    between atoms: _173  and  _175
REMARK   78  A    between atoms: _175  and  _176
REMARK   79  A    between atoms: _175  and  _178
REMARK   80  A    between atoms: _178  and  _179
REMARK   81  A    between atoms: _185  and  _187
REMARK   82  A    between atoms: _187  and  _188
REMARK   83  A    between atoms: _187  and  _190
REMARK   84  A    between atoms: _190  and  _191
REMARK   85  A    between atoms: _194  and  _196
REMARK   86  A    between atoms: _196  and  _197
REMARK   87  A    between atoms: _196  and  _199
REMARK   88  A    between atoms: _202  and  _204
REMARK   89  A    between atoms: _204  and  _205
REMARK   90  A    between atoms: _204  and  _207
REMARK   91  A    between atoms: _207  and  _208
REMARK   92  A    between atoms: _208  and  _209
REMARK   93  A    between atoms: _214  and  _216
REMARK   94  A    between atoms: _216  and  _217
REMARK   95  A    between atoms: _216  and  _219
REMARK   96  A    between atoms: _219  and  _220
REMARK   97  A    between atoms: _224  and  _225
REMARK   98  A    between atoms: _230  and  _232
REMARK   99  A    between atoms: _232  and  _233
REMARK  100  A    between atoms: _232  and  _235
REMARK  101  A    between atoms: _235  and  _236
REMARK  102  A    between atoms: _240  and  _241
REMARK  103  A    between atoms: _246  and  _248
REMARK  104  A    between atoms: _248  and  _249
REMARK  105  A    between atoms: _248  and  _251
REMARK  106  A    between atoms: _254  and  _256
REMARK  107  A    between atoms: _256  and  _257
REMARK  108  A    between atoms: _256  and  _259
REMARK  109  A    between atoms: _259  and  _260
REMARK  110  A    between atoms: _265  and  _267
REMARK  111  A    between atoms: _267  and  _268
REMARK  112  A    between atoms: _267  and  _270
REMARK  113  A    between atoms: _270  and  _271
REMARK  114  A    between atoms: _274  and  _276
REMARK  115  A    between atoms: _276  and  _277
REMARK  116  A    between atoms: _276  and  _279
REMARK  117  A    between atoms: _279  and  _280
REMARK  118  A    between atoms: _283  and  _285
REMARK  119  A    between atoms: _285  and  _286
REMARK  120  A    between atoms: _288  and  _290
REMARK  121  A    between atoms: _290  and  _291
REMARK  122  A    between atoms: _290  and  _293
REMARK  123  A    between atoms: _293  and  _294
REMARK  124  A    between atoms: _294  and  _295
REMARK  125  A    between atoms: _295  and  _296
REMARK  126  A    between atoms: _305  and  _307
REMARK  127  A    between atoms: _307  and  _308
REMARK  128  A    between atoms: _307  and  _310
REMARK  129  A    between atoms: _310  and  _311
REMARK  130  A    between atoms: _316  and  _318
REMARK  131  A    between atoms: _318  and  _319
REMARK  132  A    between atoms: _318  and  _321
REMARK  133  A    between atoms: _321  and  _322
REMARK  134  A    between atoms: _322  and  _323
REMARK  135  A    between atoms: _323  and  _324
REMARK  136  A    between atoms: _324  and  _325
REMARK  137  A    between atoms: _329  and  _331
REMARK  138  A    between atoms: _331  and  _332
REMARK  139  A    between atoms: _331  and  _334
REMARK  140  A    between atoms: _334  and  _335
REMARK  141  A    between atoms: _335  and  _336
REMARK  142  A    between atoms: _336  and  _337
REMARK  143  A    between atoms: _346  and  _348
REMARK  144  A    between atoms: _348  and  _349
REMARK  145  A    between atoms: _348  and  _351
REMARK  146  A    between atoms: _351  and  _352
REMARK  147  A    between atoms: _355  and  _357
REMARK  148  A    between atoms: _357  and  _358
REMARK  149  A    between atoms: _357  and  _360
REMARK  150  A    between atoms: _360  and  _361
REMARK  151  A    between atoms: _364  and  _366
REMARK  152  A    between atoms: _366  and  _367
REMARK  153  A    between atoms: _366  and  _369
REMARK  154  A    between atoms: _369  and  _370
REMARK  155  A    between atoms: _373  and  _375
REMARK  156  A    between atoms: _375  and  _376
REMARK  157  A    between atoms: _375  and  _378
REMARK  158  A    between atoms: _378  and  _379
REMARK  159  A    between atoms: _382  and  _384
REMARK  160  A    between atoms: _384  and  _385
REMARK  161  A    between atoms: _387  and  _389
REMARK  162  A    between atoms: _389  and  _390
REMARK  163  A    between atoms: _393  and  _395
REMARK  164  A    between atoms: _395  and  _396
REMARK  165  A    between atoms: _395  and  _398
REMARK  166  A    between atoms: _398  and  _399
REMARK  167  A    between atoms: _402  and  _404
REMARK  168  A    between atoms: _404  and  _405
REMARK  169  A    between atoms: _404  and  _407
REMARK  170  A    between atoms: _407  and  _408
REMARK  171  A    between atoms: _411  and  _413
REMARK  172  A    between atoms: _413  and  _414
REMARK  173  A    between atoms: _413  and  _416
REMARK  174  A    between atoms: _416  and  _417
REMARK  175  A    between atoms: _420  and  _422
REMARK  176  A    between atoms: _422  and  _423
REMARK  177  A    between atoms: _422  and  _425
REMARK  178  A    between atoms: _428  and  _430
REMARK  179  A    between atoms: _430  and  _431
REMARK  180  A    between atoms: _430  and  _433
REMARK  181  A    between atoms: _433  and  _434
REMARK  182  A    between atoms: _434  and  _435
REMARK  183  A    between atoms: _435  and  _436
REMARK  184  A    between atoms: _436  and  _437
REMARK  185  A    between atoms: _441  and  _443
REMARK  186  A    between atoms: _443  and  _444
REMARK  187  A    between atoms: _443  and  _446
REMARK  188  A    between atoms: _446  and  _447
REMARK  189  A    between atoms: _447  and  _448
REMARK  190  A    between atoms: _450  and  _452
REMARK  191  A    between atoms: _452  and  _453
REMARK  192  A    between atoms: _452  and  _455
REMARK  193  A    between atoms: _455  and  _456
REMARK  194  A    between atoms: _459  and  _461
REMARK  195  A    between atoms: _461  and  _462
REMARK  196  A    between atoms: _464  and  _466
REMARK  197  A    between atoms: _466  and  _467
REMARK  198  A    between atoms: _469  and  _471
REMARK  199  A    between atoms: _471  and  _472
REMARK  200  A    between atoms: _471  and  _474
REMARK  201  A    between atoms: _474  and  _475
REMARK  202  A    between atoms: _478  and  _480
REMARK  203  A    between atoms: _480  and  _481
REMARK  204  A    between atoms: _483  and  _485
REMARK  205  A    between atoms: _485  and  _486
REMARK  206  A    between atoms: _488  and  _490
REMARK  207  A    between atoms: _490  and  _491
REMARK  208  A    between atoms: _490  and  _493
REMARK  209  A    between atoms: _493  and  _494
REMARK  210  A    between atoms: _500  and  _502
REMARK  211  A    between atoms: _502  and  _503
REMARK  212  A    between atoms: _502  and  _505
REMARK  213  A    between atoms: _505  and  _506
REMARK  214  A    between atoms: _509  and  _511
REMARK  215  A    between atoms: _511  and  _512
REMARK  216  A    between atoms: _511  and  _514
REMARK  217  A    between atoms: _517  and  _519
REMARK  218  A    between atoms: _519  and  _520
REMARK  219  A    between atoms: _519  and  _522
REMARK  220  A    between atoms: _522  and  _523
REMARK  221  A    between atoms: _523  and  _524
REMARK  222  A    between atoms: _529  and  _531
REMARK  223  A    between atoms: _531  and  _532
REMARK  224  A    between atoms: _531  and  _534
REMARK  225  A    between atoms: _534  and  _535
REMARK  226  A    between atoms: _539  and  _540
REMARK  227  A    between atoms: _545  and  _547
REMARK  228  A    between atoms: _547  and  _548
REMARK  229  A    between atoms: _547  and  _550
REMARK  230  A    between atoms: _550  and  _551
REMARK  231  A    between atoms: _555  and  _556
REMARK  232  A    between atoms: _561  and  _563
REMARK  233  A    between atoms: _563  and  _564
REMARK  234  A    between atoms: _563  and  _566
REMARK  235  A    between atoms: _569  and  _571
REMARK  236  A    between atoms: _571  and  _572
REMARK  237  A    between atoms: _571  and  _574
REMARK  238  A    between atoms: _574  and  _575
REMARK  239  A    between atoms: _580  and  _582
REMARK  240  A    between atoms: _582  and  _583
REMARK  241  A    between atoms: _582  and  _585
REMARK  242  A    between atoms: _585  and  _586
REMARK  243  A    between atoms: _589  and  _591
REMARK  244  A    between atoms: _591  and  _592
REMARK  245  A    between atoms: _591  and  _594
REMARK  246  A    between atoms: _594  and  _595
REMARK  247  A    between atoms: _598  and  _600
REMARK  248  A    between atoms: _600  and  _601
REMARK  249  A    between atoms: _603  and  _605
REMARK  250  A    between atoms: _605  and  _606
REMARK  251  A    between atoms: _605  and  _608
REMARK  252  A    between atoms: _608  and  _609
REMARK  253  A    between atoms: _609  and  _610
REMARK  254  A    between atoms: _610  and  _611
REMARK                            x       y       z     vdW  Elec       q    Type
REMARK                         _______ _______ _______ _____ _____    ______ ____
ROOT
ATOM      1  CB  GLN A   1      -5.351 -14.013  -3.846  0.00  0.00    +0.035 C 
ENDROOT
BRANCH   1   2
ATOM      2  CA  GLN A   1      -4.053 -14.744  -3.575  0.00  0.00    +0.134 C 
BRANCH   2   3
ATOM      3  N   GLN A   1      -3.000 -13.812  -3.262  0.00  0.00    -0.239 NA
ATOM      4  H   GLN A   1      -2.988 -12.882  -3.728  0.00  0.00    +0.142 HD
ENDBRANCH   2   3
BRANCH   2   5
ATOM      5  C   GLN A   1      -3.716 -15.661  -4.744  0.00  0.00    +0.224 C 
ATOM      6  O   GLN A   1      -3.534 -15.210  -5.876  0.00  0.00    -0.287 OA
ENDBRANCH   2   5
ENDBRANCH   1   2
BRANCH   1   7
ATOM      7  CG  GLN A   1      -6.462 -14.951  -4.197  0.00  0.00    +0.087 C 
BRANCH   7   8
ATOM      8  CD  GLN A   1      -7.754 -14.229  -4.340  0.00  0.00    +0.219 C 
ATOM      9  NE2 GLN A   1      -8.184 -13.552  -3.282  0.00  0.00    -0.329 N 
ATOM     10 HE21 GLN A   1      -7.638 -13.568  -2.397  0.00  0.00    +0.145 HD
ATOM     11 HE22 GLN A   1      -9.067 -13.006  -3.338  0.00  0.00    +0.145 HD
ATOM     12  OE1 GLN A   1      -8.348 -14.250  -5.403  0.00  0.00    -0.275 OA
ENDBRANCH   7   8
ENDBRANCH   1   7
TORSDOF 5
REMARK  Name = ../refined-set-2016/2p3c/2p3c_pocket.pdb
REMARK  254 active torsions:
REMARK  status: ('A' for Active; 'I' for Inactive)
REMARK    1  A    between atoms: _1  and  _3
REMARK    2  A    between atoms: _3  and  _4
REMARK    3  A    between atoms: _3  and  _6
REMARK    4  A    between atoms: _6  and  _7
REMARK    5  A    between atoms: _7  and  _8
REMARK    6  A    between atoms: _8  and  _9
REMARK    7  A    between atoms: _9  and  _10
REMARK    8  A    between atoms: _14  and  _16
REMARK    9  A    between atoms: _16  and  _17
REMARK   10  A    between atoms: _16  and  _19
REMARK   11  A    between atoms: _19  and  _20
REMARK   12  A    between atoms: _20  and  _21
REMARK   13  A    between atoms: _21  and  _22
REMARK   14  A    between atoms: _31  and  _33
REMARK   15  A    between atoms: _33  and  _34
REMARK   16  A    between atoms: _33  and  _36
REMARK   17  A    between atoms: _36  and  _37
REMARK   18  A    between atoms: _40  and  _42
REMARK   19  A    between atoms: _42  and  _43
REMARK   20  A    between atoms: _42  and  _45
REMARK   21  A    between atoms: _45  and  _46
REMARK   22  A    between atoms: _49  and  _51
REMARK   23  A    between atoms: _51  and  _52
REMARK   24  A    between atoms: _51  and  _54
REMARK   25  A    between atoms: _54  and  _55
REMARK   26  A    between atoms: _58  and  _60
REMARK   27  A    between atoms: _60  and  _61
REMARK   28  A    between atoms: _60  and  _63
REMARK   29  A    between atoms: _63  and  _64
REMARK   30  A    between atoms: _67  and  _69
REMARK   31  A    between atoms: _69  and  _70
REMARK   32  A    between atoms: _72  and  _74
REMARK   33  A    between atoms: _74  and  _75
REMARK   34  A    between atoms: _78  and  _80
REMARK   35  A    between atoms: _80  and  _81
REMARK   36  A    between atoms: _80  and  _83
REMARK   37  A    between atoms: _83  and  _84
REMARK   38  A    between atoms: _87  and  _89
REMARK   39  A    between atoms: _89  and  _90
REMARK   40  A    between atoms: _89  and  _92
REMARK   41  A    between atoms: _92  and  _93
REMARK   42  A    between atoms: _96  and  _98
REMARK   43  A    between atoms: _98  and  _99
REMARK   44  A    between atoms: _98  and  _101
REMARK   45  A    between atoms: _101  and  _102
REMARK   46  A    between atoms: _105  and  _107
REMARK   47  A    between atoms: _107  and  _108
REMARK   48  A    between atoms: _107  and  _110
REMARK   49  A    between atoms: _113  and  _115
REMARK   50  A    between atoms: _115  and  _116
REMARK   51  A    between atoms: _115  and  _118
REMARK   52  A    between atoms: _118  and  _119
REMARK   53  A    between atoms: _119  and  _120
REMARK   54  A    between atoms: _120  and  _121
REMARK   55  A    between atoms: _121  and  _122
REMARK   56  A    between atoms: _126  and  _128
REMARK   57  A    between atoms: _128  and  _129
REMARK   58  A    between atoms: _128  and  _131
REMARK   59  A    between atoms: _131  and  _132
REMARK   60  A    between atoms: _132  and  _133
REMARK   61  A    between atoms: _135  and  _137
REMARK   62  A    between atoms: _137  and  _138
REMARK   63  A    between atoms: _137  and  _140
REMARK   64  A    between atoms: _140  and  _141
REMARK   65  A    between atoms: _144  and  _146
REMARK   66  A    between atoms: _146  and  _147
REMARK   67  A    between atoms: _149  and  _151
REMARK   68  A    between atoms: _151  and  _152
REMARK   69  A    between atoms: _154  and  _156
REMARK   70  A    between atoms: _156  and  _157
REMARK   71  A    between atoms: _156  and  _159
REMARK   72  A    between atoms: _159  and  _160
REMARK   73  A    between atoms: _163  and  _165
REMARK   74  A    between atoms: _165  and  _166
REMARK   75  A    between atoms: _168  and  _170
REMARK   76  A    between atoms: _170  and  _171
REMARK   77  A    between atoms: _173  and  _175
REMARK   78  A    between atoms: _175  and  _176
REMARK   79  A    between atoms: _175  and  _178
REMARK   80  A    between atoms: _178  and  _179
REMARK   81  A    between atoms: _185  and  _187
REMARK   82  A    between atoms: _187  and  _188
REMARK   83  A    between atoms: _187  and  _190
REMARK   84  A    between atoms: _190  and  _191
REMARK   85  A    between atoms: _194  and  _196
REMARK   86  A    between atoms: _196  and  _197
REMARK   87  A    between atoms: _196  and  _199
REMARK   88  A    between atoms: _202  and  _204
REMARK   89  A    between atoms: _204  and  _205
REMARK   90  A    between atoms: _204  and  _207
REMARK   91  A    between atoms: _207  and  _208
REMARK   92  A    between atoms: _208  and  _209
REMARK   93  A    between atoms: _214  and  _216
REMARK   94  A    between atoms: _216  and  _217
REMARK   95  A    between atoms: _216  and  _219
REMARK   96  A    between atoms: _219  and  _220
REMARK   97  A    between atoms: _224  and  _225
REMARK   98  A    between atoms: _230  and  _232
REMARK   99  A    between atoms: _232  and  _233
REMARK  100  A    between atoms: _232  and  _235
REMARK  101  A    between atoms: _235  and  _236
REMARK  102  A    between atoms: _240  and  _241
REMARK  103  A    between atoms: _246  and  _248
REMARK  104  A    between atoms: _248  and  _249
REMARK  105  A    between atoms: _248  and  _251
REMARK  106  A    between atoms: _254  and  _256
REMARK  107  A    between atoms: _256  and  _257
REMARK  108  A    between atoms: _256  and  _259
REMARK  109  A    between atoms: _259  and  _260
REMARK  110  A    between atoms: _265  and  _267
REMARK  111  A    between atoms: _267  and  _268
REMARK  112  A    between atoms: _267  and  _270
REMARK  113  A    between atoms: _270  and  _271
REMARK  114  A    between atoms: _274  and  _276
REMARK  115  A    between atoms: _276  and  _277
REMARK  116  A    between atoms: _276  and  _279
REMARK  117  A    between atoms: _279  and  _280
REMARK  118  A    between atoms: _283  and  _285
REMARK  119  A    between atoms: _285  and  _286
REMARK  120  A    between atoms: _288  and  _290
REMARK  121  A    between atoms: _290  and  _291
REMARK  122  A    between atoms: _290  and  _293
REMARK  123  A    between atoms: _293  and  _294
REMARK  124  A    between atoms: _294  and  _295
REMARK  125  A    between atoms: _295  and  _296
REMARK  126  A    between atoms: _305  and  _307
REMARK  127  A    between atoms: _307  and  _308
REMARK  128  A    between atoms: _307  and  _310
REMARK  129  A    between atoms: _310  and  _311
REMARK  130  A    between atoms: _316  and  _318
REMARK  131  A    between atoms: _318  and  _319
REMARK  132  A    between atoms: _318  and  _321
REMARK  133  A    between atoms: _321  and  _322
REMARK  134  A    between atoms: _322  and  _323
REMARK  135  A    between atoms: _323  and  _324
REMARK  136  A    between atoms: _324  and  _325
REMARK  137  A    between atoms: _329  and  _331
REMARK  138  A    between atoms: _331  and  _332
REMARK  139  A    between atoms: _331  and  _334
REMARK  140  A    between atoms: _334  and  _335
REMARK  141  A    between atoms: _335  and  _336
REMARK  142  A    between atoms: _336  and  _337
REMARK  143  A    between atoms: _346  and  _348
REMARK  144  A    between atoms: _348  and  _349
REMARK  145  A    between atoms: _348  and  _351
REMARK  146  A    between atoms: _351  and  _352
REMARK  147  A    between atoms: _355  and  _357
REMARK  148  A    between atoms: _357  and  _358
REMARK  149  A    between atoms: _357  and  _360
REMARK  150  A    between atoms: _360  and  _361
REMARK  151  A    between atoms: _364  and  _366
REMARK  152  A    between atoms: _366  and  _367
REMARK  153  A    between atoms: _366  and  _369
REMARK  154  A    between atoms: _369  and  _370
REMARK  155  A    between atoms: _373  and  _375
REMARK  156  A    between atoms: _375  and  _376
REMARK  157  A    between atoms: _375  and  _378
REMARK  158  A    between atoms: _378  and  _379
REMARK  159  A    between atoms: _382  and  _384
REMARK  160  A    between atoms: _384  and  _385
REMARK  161  A    between atoms: _387  and  _389
REMARK  162  A    between atoms: _389  and  _390
REMARK  163  A    between atoms: _393  and  _395
REMARK  164  A    between atoms: _395  and  _396
REMARK  165  A    between atoms: _395  and  _398
REMARK  166  A    between atoms: _398  and  _399
REMARK  167  A    between atoms: _402  and  _404
REMARK  168  A    between atoms: _404  and  _405
REMARK  169  A    between atoms: _404  and  _407
REMARK  170  A    between atoms: _407  and  _408
REMARK  171  A    between atoms: _411  and  _413
REMARK  172  A    between atoms: _413  and  _414
REMARK  173  A    between atoms: _413  and  _416
REMARK  174  A    between atoms: _416  and  _417
REMARK  175  A    between atoms: _420  and  _422
REMARK  176  A    between atoms: _422  and  _423
REMARK  177  A    between atoms: _422  and  _425
REMARK  178  A    between atoms: _428  and  _430
REMARK  179  A    between atoms: _430  and  _431
REMARK  180  A    between atoms: _430  and  _433
REMARK  181  A    between atoms: _433  and  _434
REMARK  182  A    between atoms: _434  and  _435
REMARK  183  A    between atoms: _435  and  _436
REMARK  184  A    between atoms: _436  and  _437
REMARK  185  A    between atoms: _441  and  _443
REMARK  186  A    between atoms: _443  and  _444
REMARK  187  A    between atoms: _443  and  _446
REMARK  188  A    between atoms: _446  and  _447
REMARK  189  A    between atoms: _447  and  _448
REMARK  190  A    between atoms: _450  and  _452
REMARK  191  A    between atoms: _452  and  _453
REMARK  192  A    between atoms: _452  and  _455
REMARK  193  A    between atoms: _455  and  _456
REMARK  194  A    between atoms: _459  and  _461
REMARK  195  A    between atoms: _461  and  _462
REMARK  196  A    between atoms: _464  and  _466
REMARK  197  A    between atoms: _466  and  _467
REMARK  198  A    between atoms: _469  and  _471
REMARK  199  A    between atoms: _471  and  _472
REMARK  200  A    between atoms: _471  and  _474
REMARK  201  A    between atoms: _474  and  _475
REMARK  202  A    between atoms: _478  and  _480
REMARK  203  A    between atoms: _480  and  _481
REMARK  204  A    between atoms: _483  and  _485
REMARK  205  A    between atoms: _485  and  _486
REMARK  206  A    between atoms: _488  and  _490
REMARK  207  A    between atoms: _490  and  _491
REMARK  208  A    between atoms: _490  and  _493
REMARK  209  A    between atoms: _493  and  _494
REMARK  210  A    between atoms: _500  and  _502
REMARK  211  A    between atoms: _502  and  _503
REMARK  212  A    between atoms: _502  and  _505
REMARK  213  A    between atoms: _505  and  _506
REMARK  214  A    between atoms: _509  and  _511
REMARK  215  A    between atoms: _511  and  _512
REMARK  216  A    between atoms: _511  and  _514
REMARK  217  A    between atoms: _517  and  _519
REMARK  218  A    between atoms: _519  and  _520
REMARK  219  A    between atoms: _519  and  _522
REMARK  220  A    between atoms: _522  and  _523
REMARK  221  A    between atoms: _523  and  _524
REMARK  222  A    between atoms: _529  and  _531
REMARK  223  A    between atoms: _531  and  _532
REMARK  224  A    between atoms: _531  and  _534
REMARK  225  A    between atoms: _534  and  _535
REMARK  226  A    between atoms: _539  and  _540
REMARK  227  A    between atoms: _545  and  _547
REMARK  228  A    between atoms: _547  and  _548
REMARK  229  A    between atoms: _547  and  _550
REMARK  230  A    between atoms: _550  and  _551
REMARK  231  A    between atoms: _555  and  _556
REMARK  232  A    between atoms: _561  and  _563
REMARK  233  A    between atoms: _563  and  _564
REMARK  234  A    between atoms: _563  and  _566
REMARK  235  A    between atoms: _569  and  _571
REMARK  236  A    between atoms: _571  and  _572
REMARK  237  A    between atoms: _571  and  _574
REMARK  238  A    between atoms: _574  and  _575
REMARK  239  A    between atoms: _580  and  _582
REMARK  240  A    between atoms: _582  and  _583
REMARK  241  A    between atoms: _582  and  _585
REMARK  242  A    between atoms: _585  and  _586
REMARK  243  A    between atoms: _589  and  _591
REMARK  244  A    between atoms: _591  and  _592
REMARK  245  A    between atoms: _591  and  _594
REMARK  246  A    between atoms: _594  and  _595
REMARK  247  A    between atoms: _598  and  _600
REMARK  248  A    between atoms: _600  and  _601
REMARK  249  A    between atoms: _603  and  _605
REMARK  250  A    between atoms: _605  and  _606
REMARK  251  A    between atoms: _605  and  _608
REMARK  252  A    between atoms: _608  and  _609
REMARK  253  A    between atoms: _609  and  _610
REMARK  254  A    between atoms: _610  and  _611
REMARK                            x       y       z     vdW  Elec       q    Type
REMARK                         _______ _______ _______ _____ _____    ______ ____
ROOT
ATOM      1  CA  LEU A   1      -3.744 -16.872   0.404  0.00  0.00    +0.133 C 
ENDROOT
BRANCH   1   2
ATOM      2  N   LEU A   1      -4.430 -18.131   0.190  0.00  0.00    -0.239 NA
ATOM      3  H   LEU A   1      -5.029 -18.519   0.946  0.00  0.00    +0.142 HD
ENDBRANCH   1   2
BRANCH   1   4
ATOM      4  C   LEU A   1      -2.402 -17.174   1.037  0.00  0.00    +0.224 C 
ATOM      5  O   LEU A   1      -2.269 -18.060   1.857  0.00  0.00    -0.287 OA
ENDBRANCH   1   4
BRANCH   1   6
ATOM      6  CB  LEU A   1      -4.583 -15.936   1.284  0.00  0.00    +0.025 C 
BRANCH   6   7
ATOM      7  CG  LEU A   1      -6.061 -15.864   0.861  0.00  0.00    +0.002 C 
ATOM      8  CD2 LEU A   1      -6.814 -14.971   1.790  0.00  0.00    +0.000 C 
ATOM      9  CD1 LEU A   1      -6.262 -15.382  -0.569  0.00  0.00    +0.000 C 
ENDBRANCH   6   7
ENDBRANCH   1   6
TORSDOF 4
REMARK  Name = ../refined-set-2016/2p3c/2p3c_pocket.pdb
REMARK  254 active torsions:
REMARK  status: ('A' for Active; 'I' for Inactive)
REMARK    1  A    between atoms: _1  and  _3
REMARK    2  A    between atoms: _3  and  _4
REMARK    3  A    between atoms: _3  and  _6
REMARK    4  A    between atoms: _6  and  _7
REMARK    5  A    between atoms: _7  and  _8
REMARK    6  A    between atoms: _8  and  _9
REMARK    7  A    between atoms: _9  and  _10
REMARK    8  A    between atoms: _14  and  _16
REMARK    9  A    between atoms: _16  and  _17
REMARK   10  A    between atoms: _16  and  _19
REMARK   11  A    between atoms: _19  and  _20
REMARK   12  A    between atoms: _20  and  _21
REMARK   13  A    between atoms: _21  and  _22
REMARK   14  A    between atoms: _31  and  _33
REMARK   15  A    between atoms: _33  and  _34
REMARK   16  A    between atoms: _33  and  _36
REMARK   17  A    between atoms: _36  and  _37
REMARK   18  A    between atoms: _40  and  _42
REMARK   19  A    between atoms: _42  and  _43
REMARK   20  A    between atoms: _42  and  _45
REMARK   21  A    between atoms: _45  and  _46
REMARK   22  A    between atoms: _49  and  _51
REMARK   23  A    between atoms: _51  and  _52
REMARK   24  A    between atoms: _51  and  _54
REMARK   25  A    between atoms: _54  and  _55
REMARK   26  A    between atoms: _58  and  _60
REMARK   27  A    between atoms: _60  and  _61
REMARK   28  A    between atoms: _60  and  _63
REMARK   29  A    between atoms: _63  and  _64
REMARK   30  A    between atoms: _67  and  _69
REMARK   31  A    between atoms: _69  and  _70
REMARK   32  A    between atoms: _72  and  _74
REMARK   33  A    between atoms: _74  and  _75
REMARK   34  A    between atoms: _78  and  _80
REMARK   35  A    between atoms: _80  and  _81
REMARK   36  A    between atoms: _80  and  _83
REMARK   37  A    between atoms: _83  and  _84
REMARK   38  A    between atoms: _87  and  _89
REMARK   39  A    between atoms: _89  and  _90
REMARK   40  A    between atoms: _89  and  _92
REMARK   41  A    between atoms: _92  and  _93
REMARK   42  A    between atoms: _96  and  _98
REMARK   43  A    between atoms: _98  and  _99
REMARK   44  A    between atoms: _98  and  _101
REMARK   45  A    between atoms: _101  and  _102
REMARK   46  A    between atoms: _105  and  _107
REMARK   47  A    between atoms: _107  and  _108
REMARK   48  A    between atoms: _107  and  _110
REMARK   49  A    between atoms: _113  and  _115
REMARK   50  A    between atoms: _115  and  _116
REMARK   51  A    between atoms: _115  and  _118
REMARK   52  A    between atoms: _118  and  _119
REMARK   53  A    between atoms: _119  and  _120
REMARK   54  A    between atoms: _120  and  _121
REMARK   55  A    between atoms: _121  and  _122
REMARK   56  A    between atoms: _126  and  _128
REMARK   57  A    between atoms: _128  and  _129
REMARK   58  A    between atoms: _128  and  _131
REMARK   59  A    between atoms: _131  and  _132
REMARK   60  A    between atoms: _132  and  _133
REMARK   61  A    between atoms: _135  and  _137
REMARK   62  A    between atoms: _137  and  _138
REMARK   63  A    between atoms: _137  and  _140
REMARK   64  A    between atoms: _140  and  _141
REMARK   65  A    between atoms: _144  and  _146
REMARK   66  A    between atoms: _146  and  _147
REMARK   67  A    between atoms: _149  and  _151
REMARK   68  A    between atoms: _151  and  _152
REMARK   69  A    between atoms: _154  and  _156
REMARK   70  A    between atoms: _156  and  _157
REMARK   71  A    between atoms: _156  and  _159
REMARK   72  A    between atoms: _159  and  _160
REMARK   73  A    between atoms: _163  and  _165
REMARK   74  A    between atoms: _165  and  _166
REMARK   75  A    between atoms: _168  and  _170
REMARK   76  A    between atoms: _170  and  _171
REMARK   77  A    between atoms: _173  and  _175
REMARK   78  A    between atoms: _175  and  _176
REMARK   79  A    between atoms: _175  and  _178
REMARK   80  A    between atoms: _178  and  _179
REMARK   81  A    between atoms: _185  and  _187
REMARK   82  A    between atoms: _187  and  _188
REMARK   83  A    between atoms: _187  and  _190
REMARK   84  A    between atoms: _190  and  _191
REMARK   85  A    between atoms: _194  and  _196
REMARK   86  A    between atoms: _196  and  _197
REMARK   87  A    between atoms: _196  and  _199
REMARK   88  A    between atoms: _202  and  _204
REMARK   89  A    between atoms: _204  and  _205
REMARK   90  A    between atoms: _204  and  _207
REMARK   91  A    between atoms: _207  and  _208
REMARK   92  A    between atoms: _208  and  _209
REMARK   93  A    between atoms: _214  and  _216
REMARK   94  A    between atoms: _216  and  _217
REMARK   95  A    between atoms: _216  and  _219
REMARK   96  A    between atoms: _219  and  _220
REMARK   97  A    between atoms: _224  and  _225
REMARK   98  A    between atoms: _230  and  _232
REMARK   99  A    between atoms: _232  and  _233
REMARK  100  A    between atoms: _232  and  _235
REMARK  101  A    between atoms: _235  and  _236
REMARK  102  A    between atoms: _240  and  _241
REMARK  103  A    between atoms: _246  and  _248
REMARK  104  A    between atoms: _248  and  _249
REMARK  105  A    between atoms: _248  and  _251
REMARK  106  A    between atoms: _254  and  _256
REMARK  107  A    between atoms: _256  and  _257
REMARK  108  A    between atoms: _256  and  _259
REMARK  109  A    between atoms: _259  and  _260
REMARK  110  A    between atoms: _265  and  _267
REMARK  111  A    between atoms: _267  and  _268
REMARK  112  A    between atoms: _267  and  _270
REMARK  113  A    between atoms: _270  and  _271
REMARK  114  A    between atoms: _274  and  _276
REMARK  115  A    between atoms: _276  and  _277
REMARK  116  A    between atoms: _276  and  _279
REMARK  117  A    between atoms: _279  and  _280
REMARK  118  A    between atoms: _283  and  _285
REMARK  119  A    between atoms: _285  and  _286
REMARK  120  A    between atoms: _288  and  _290
REMARK  121  A    between atoms: _290  and  _291
REMARK  122  A    between atoms: _290  and  _293
REMARK  123  A    between atoms: _293  and  _294
REMARK  124  A    between atoms: _294  and  _295
REMARK  125  A    between atoms: _295  and  _296
REMARK  126  A    between atoms: _305  and  _307
REMARK  127  A    between atoms: _307  and  _308
REMARK  128  A    between atoms: _307  and  _310
REMARK  129  A    between atoms: _310  and  _311
REMARK  130  A    between atoms: _316  and  _318
REMARK  131  A    between atoms: _318  and  _319
REMARK  132  A    between atoms: _318  and  _321
REMARK  133  A    between atoms: _321  and  _322
REMARK  134  A    between atoms: _322  and  _323
REMARK  135  A    between atoms: _323  and  _324
REMARK  136  A    between atoms: _324  and  _325
REMARK  137  A    between atoms: _329  and  _331
REMARK  138  A    between atoms: _331  and  _332
REMARK  139  A    between atoms: _331  and  _334
REMARK  140  A    between atoms: _334  and  _335
REMARK  141  A    between atoms: _335  and  _336
REMARK  142  A    between atoms: _336  and  _337
REMARK  143  A    between atoms: _346  and  _348
REMARK  144  A    between atoms: _348  and  _349
REMARK  145  A    between atoms: _348  and  _351
REMARK  146  A    between atoms: _351  and  _352
REMARK  147  A    between atoms: _355  and  _357
REMARK  148  A    between atoms: _357  and  _358
REMARK  149  A    between atoms: _357  and  _360
REMARK  150  A    between atoms: _360  and  _361
REMARK  151  A    between atoms: _364  and  _366
REMARK  152  A    between atoms: _366  and  _367
REMARK  153  A    between atoms: _366  and  _369
REMARK  154  A    between atoms: _369  and  _370
REMARK  155  A    between atoms: _373  and  _375
REMARK  156  A    between atoms: _375  and  _376
REMARK  157  A    between atoms: _375  and  _378
REMARK  158  A    between atoms: _378  and  _379
REMARK  159  A    between atoms: _382  and  _384
REMARK  160  A    between atoms: _384  and  _385
REMARK  161  A    between atoms: _387  and  _389
REMARK  162  A    between atoms: _389  and  _390
REMARK  163  A    between atoms: _393  and  _395
REMARK  164  A    between atoms: _395  and  _396
REMARK  165  A    between atoms: _395  and  _398
REMARK  166  A    between atoms: _398  and  _399
REMARK  167  A    between atoms: _402  and  _404
REMARK  168  A    between atoms: _404  and  _405
REMARK  169  A    between atoms: _404  and  _407
REMARK  170  A    between atoms: _407  and  _408
REMARK  171  A    between atoms: _411  and  _413
REMARK  172  A    between atoms: _413  and  _414
REMARK  173  A    between atoms: _413  and  _416
REMARK  174  A    between atoms: _416  and  _417
REMARK  175  A    between atoms: _420  and  _422
REMARK  176  A    between atoms: _422  and  _423
REMARK  177  A    between atoms: _422  and  _425
REMARK  178  A    between atoms: _428  and  _430
REMARK  179  A    between atoms: _430  and  _431
REMARK  180  A    between atoms: _430  and  _433
REMARK  181  A    between atoms: _433  and  _434
REMARK  182  A    between atoms: _434  and  _435
REMARK  183  A    between atoms: _435  and  _436
REMARK  184  A    between atoms: _436  and  _437
REMARK  185  A    between atoms: _441  and  _443
REMARK  186  A    between atoms: _443  and  _444
REMARK  187  A    between atoms: _443  and  _446
REMARK  188  A    between atoms: _446  and  _447
REMARK  189  A    between atoms: _447  and  _448
REMARK  190  A    between atoms: _450  and  _452
REMARK  191  A    between atoms: _452  and  _453
REMARK  192  A    between atoms: _452  and  _455
REMARK  193  A    between atoms: _455  and  _456
REMARK  194  A    between atoms: _459  and  _461
REMARK  195  A    between atoms: _461  and  _462
REMARK  196  A    between atoms: _464  and  _466
REMARK  197  A    between atoms: _466  and  _467
REMARK  198  A    between atoms: _469  and  _471
REMARK  199  A    between atoms: _471  and  _472
REMARK  200  A    between atoms: _471  and  _474
REMARK  201  A    between atoms: _474  and  _475
REMARK  202  A    between atoms: _478  and  _480
REMARK  203  A    between atoms: _480  and  _481
REMARK  204  A    between atoms: _483  and  _485
REMARK  205  A    between atoms: _485  and  _486
REMARK  206  A    between atoms: _488  and  _490
REMARK  207  A    between atoms: _490  and  _491
REMARK  208  A    between atoms: _490  and  _493
REMARK  209  A    between atoms: _493  and  _494
REMARK  210  A    between atoms: _500  and  _502
REMARK  211  A    between atoms: _502  and  _503
REMARK  212  A    between atoms: _502  and  _505
REMARK  213  A    between atoms: _505  and  _506
REMARK  214  A    between atoms: _509  and  _511
REMARK  215  A    between atoms: _511  and  _512
REMARK  216  A    between atoms: _511  and  _514
REMARK  217  A    between atoms: _517  and  _519
REMARK  218  A    between atoms: _519  and  _520
REMARK  219  A    between atoms: _519  and  _522
REMARK  220  A    between atoms: _522  and  _523
REMARK  221  A    between atoms: _523  and  _524
REMARK  222  A    between atoms: _529  and  _531
REMARK  223  A    between atoms: _531  and  _532
REMARK  224  A    between atoms: _531  and  _534
REMARK  225  A    between atoms: _534  and  _535
REMARK  226  A    between atoms: _539  and  _540
REMARK  227  A    between atoms: _545  and  _547
REMARK  228  A    between atoms: _547  and  _548
REMARK  229  A    between atoms: _547  and  _550
REMARK  230  A    between atoms: _550  and  _551
REMARK  231  A    between atoms: _555  and  _556
REMARK  232  A    between atoms: _561  and  _563
REMARK  233  A    between atoms: _563  and  _564
REMARK  234  A    between atoms: _563  and  _566
REMARK  235  A    between atoms: _569  and  _571
REMARK  236  A    between atoms: _571  and  _572
REMARK  237  A    between atoms: _571  and  _574
REMARK  238  A    between atoms: _574  and  _575
REMARK  239  A    between atoms: _580  and  _582
REMARK  240  A    between atoms: _582  and  _583
REMARK  241  A    between atoms: _582  and  _585
REMARK  242  A    between atoms: _585  and  _586
REMARK  243  A    between atoms: _589  and  _591
REMARK  244  A    between atoms: _591  and  _592
REMARK  245  A    between atoms: _591  and  _594
REMARK  246  A    between atoms: _594  and  _595
REMARK  247  A    between atoms: _598  and  _600
REMARK  248  A    between atoms: _600  and  _601
REMARK  249  A    between atoms: _603  and  _605
REMARK  250  A    between atoms: _605  and  _606
REMARK  251  A    between atoms: _605  and  _608
REMARK  252  A    between atoms: _608  and  _609
REMARK  253  A    between atoms: _609  and  _610
REMARK  254  A    between atoms: _610  and  _611
REMARK                            x       y       z     vdW  Elec       q    Type
REMARK                         _______ _______ _______ _____ _____    ______ ____
ROOT
ATOM      1  CA  ILE A   6      -5.146 -21.376   8.485  0.00  0.00    +0.149 C 
ENDROOT
BRANCH   1   2
ATOM      2  C   ILE A   6      -5.823 -22.100   7.354  0.00  0.00    +0.241 C 
ATOM      3  N   ILE A   7      -6.611 -23.107   7.701  0.00  0.00    -0.297 N 
ATOM      4  H   ILE A   7      -6.557 -23.494   8.665  0.00  0.00    +0.150 HD
ATOM      5  O   ILE A   6      -5.678 -21.731   6.201  0.00  0.00    -0.273 OA
BRANCH   3   6
ATOM      6  CA  ILE A   7      -7.548 -23.675   6.750  0.00  0.00    +0.149 C 
BRANCH   6   7
ATOM      7  C   ILE A   7      -8.921 -23.116   7.005  0.00  0.00    +0.241 C 
ATOM      8  O   ILE A   7      -9.536 -23.378   8.038  0.00  0.00    -0.273 OA
ATOM      9  N   GLY A   8      -9.394 -22.339   6.042  0.00  0.00    -0.295 N 
ATOM     10  H   GLY A   8      -8.862 -22.256   5.152  0.00  0.00    +0.150 HD
BRANCH   9  11
ATOM     11  CA  GLY A   8     -10.615 -21.612   6.192  0.00  0.00    +0.176 C 
BRANCH  11  12
ATOM     12  C   GLY A   8     -11.712 -22.373   5.497  0.00  0.00    +0.243 C 
ATOM     13  N   ARG A   9     -12.902 -21.790   5.534  0.00  0.00    -0.297 N 
ATOM     14  H   ARG A   9     -12.968 -20.805   5.862  0.00  0.00    +0.150 HD
ATOM     15  O   GLY A   8     -11.480 -23.439   4.904  0.00  0.00    -0.273 OA
BRANCH  13  16
ATOM     16  CA  ARG A   9     -14.116 -22.477   5.133  0.00  0.00    +0.149 C 
BRANCH  16  17
ATOM     17  C   ARG A   9     -14.147 -22.861   3.662  0.00  0.00    +0.241 C 
ATOM     18  O   ARG A   9     -14.681 -23.937   3.314  0.00  0.00    -0.273 OA
ATOM     19  N   ASN A  10     -13.531 -22.033   2.823  0.00  0.00    -0.298 N 
ATOM     20  H   ASN A  10     -13.122 -21.150   3.190  0.00  0.00    +0.150 HD
BRANCH  19  21
ATOM     21  CA  ASN A  10     -13.415 -22.333   1.405  0.00  0.00    +0.146 C 
BRANCH  21  22
ATOM     22  C   ASN A  10     -12.862 -23.741   1.206  0.00  0.00    +0.227 C 
ATOM     23  O   ASN A  10     -13.315 -24.474   0.325  0.00  0.00    -0.286 OA
ENDBRANCH  21  22
BRANCH  21  24
ATOM     24  CB  ASN A  10     -12.583 -21.260   0.665  0.00  0.00    +0.112 C 
BRANCH  24  25
ATOM     25  CG  ASN A  10     -11.084 -21.317   1.004  0.00  0.00    +0.222 C 
ATOM     26  OD1 ASN A  10     -10.685 -21.112   2.141  0.00  0.00    -0.275 OA
ATOM     27  ND2 ASN A  10     -10.255 -21.589  -0.002  0.00  0.00    -0.329 N 
ATOM     28 HD21 ASN A  10      -9.230 -21.633   0.166  0.00  0.00    +0.145 HD
ATOM     29 HD22 ASN A  10     -10.633 -21.758  -0.956  0.00  0.00    +0.145 HD
ENDBRANCH  24  25
ENDBRANCH  21  24
ENDBRANCH  19  21
ENDBRANCH  16  17
BRANCH  16  30
ATOM     30  CB  ARG A   9     -15.337 -21.663   5.515  0.00  0.00    +0.033 C 
BRANCH  30  31
ATOM     31  CG  ARG A   9     -15.537 -21.550   7.037  0.00  0.00    +0.045 C 
BRANCH  31  32
ATOM     32  CD  ARG A   9     -16.836 -20.855   7.392  0.00  0.00    +0.174 C 
BRANCH  32  33
ATOM     33  NE  ARG A   9     -16.835 -19.458   6.956  0.00  0.00    -0.265 N 
ATOM     34  HE  ARG A   9     -16.333 -18.765   7.547  0.00  0.00    +0.259 HD
ATOM     35  CZ  ARG A   9     -17.437 -19.014   5.847  0.00  0.00    +0.342 C 
ATOM     36  NH2 ARG A   9     -17.369 -17.727   5.532  0.00  0.00    -0.292 N 
ATOM     37 HH21 ARG A   9     -16.849 -17.068   6.146  0.00  0.00    +0.255 HD
ATOM     38 HH22 ARG A   9     -17.835 -17.377   4.671  0.00  0.00    +0.255 HD
ATOM     39  NH1 ARG A   9     -18.085 -19.858   5.037  0.00  0.00    -0.292 N 
ATOM     40 HH11 ARG A   9     -18.125 -20.872   5.266  0.00  0.00    +0.255 HD
ATOM     41 HH12 ARG A   9     -18.549 -19.501   4.178  0.00  0.00    +0.255 HD
ENDBRANCH  32  33
ENDBRANCH  31  32
ENDBRANCH  30  31
ENDBRANCH  16  30
ENDBRANCH  13  16
ENDBRANCH  11  12
ENDBRANCH   9  11
ENDBRANCH   6   7
BRANCH   6  42
ATOM     42  CB  ILE A   7      -7.561 -25.215   6.787  0.00  0.00    +0.027 C 
ATOM     43  CG2 ILE A   7      -8.356 -25.736   5.593  0.00  0.00    +0.002 C 
BRANCH  42  44
ATOM     44  CG1 ILE A   7      -6.117 -25.760   6.831  0.00  0.00    +0.002 C 
ATOM     45  CD1 ILE A   7      -5.271 -25.342   5.603  0.00  0.00    +0.000 C 
ENDBRANCH  42  44
ENDBRANCH   6  42
ENDBRANCH   3   6
ENDBRANCH   1   2
BRANCH   1  48
ATOM     46  C   ASN A   5      -2.877 -21.956   9.053  0.00  0.00    +0.241 C 
ATOM     47  O   ASN A   5      -3.255 -22.639  10.008  0.00  0.00    -0.273 OA
ATOM     48  N   ILE A   6      -3.707 -21.310   8.269  0.00  0.00    -0.297 N 
ATOM     49  H   ILE A   6      -3.332 -20.743   7.482  0.00  0.00    +0.150 HD
BRANCH  46  50
ATOM     50  CA  ASN A   5      -1.396 -21.734   8.749  0.00  0.00    +0.158 C 
BRANCH  50  52
ATOM     51  C   VAL A   4      -1.021 -20.113  10.509  0.00  0.00    +0.241 C 
ATOM     52  N   ASN A   5      -0.740 -21.295   9.962  0.00  0.00    -0.297 N 
ATOM     53  H   ASN A   5      -0.037 -21.913  10.415  0.00  0.00    +0.150 HD
ATOM     54  O   VAL A   4      -1.677 -19.249   9.937  0.00  0.00    -0.273 OA
BRANCH  51  55
ATOM     55  CA  VAL A   4      -0.447 -19.843  11.896  0.00  0.00    +0.149 C 
BRANCH  55  58
ATOM     56  C   PRO A   3       1.331 -18.224  12.356  0.00  0.00    +0.241 C 
ATOM     57  O   PRO A   3       2.036 -19.045  12.957  0.00  0.00    -0.273 OA
ATOM     58  N   VAL A   4       0.144 -18.526  11.831  0.00  0.00    -0.297 N 
ATOM     59  H   VAL A   4      -0.386 -17.773  11.348  0.00  0.00    +0.150 HD
BRANCH  56  62
ATOM     60  C   THR A   2       1.041 -15.988  10.001  0.00  0.00    +0.246 C 
ATOM     61  N   PRO A   3       0.926 -15.954  11.324  0.00  0.00    -0.272 N 
ATOM     62  CA  PRO A   3       1.795 -16.769  12.186  0.00  0.00    +0.152 C 
ATOM     63  CB  PRO A   3       1.721 -16.034  13.520  0.00  0.00    +0.031 C 
ATOM     64  CG  PRO A   3       0.373 -15.479  13.544  0.00  0.00    +0.024 C 
ATOM     65  CD  PRO A   3       0.018 -15.093  12.105  0.00  0.00    +0.094 C 
ATOM     66  O   THR A   2       1.911 -16.637   9.444  0.00  0.00    -0.273 OA
BRANCH  60  67
ATOM     67  CA  THR A   2       0.063 -15.153   9.166  0.00  0.00    +0.176 C 
BRANCH  67  70
ATOM     68  C   PRO A   1       1.573 -13.563   8.172  0.00  0.00    +0.239 C 
ATOM     69  O   PRO A   1       1.574 -12.868   9.171  0.00  0.00    -0.274 OA
ATOM     70  N   THR A   2       0.794 -14.618   8.038  0.00  0.00    -0.295 N 
ATOM     71  H   THR A   2       0.704 -15.073   7.107  0.00  0.00    +0.150 HD
BRANCH  68  73
ATOM     72  N   PRO A   1       1.727 -13.144   5.748  0.00  0.00    -0.210 NA
ATOM     73  CA  PRO A   1       2.473 -13.261   6.994  0.00  0.00    +0.149 C 
ATOM     74  CB  PRO A   1       3.177 -11.907   7.104  0.00  0.00    +0.028 C 
ATOM     75  CG  PRO A   1       2.296 -10.955   6.335  0.00  0.00    +0.021 C 
ATOM     76  CD  PRO A   1       1.335 -11.749   5.474  0.00  0.00    +0.089 C 
ENDBRANCH  68  73
ENDBRANCH  67  70
BRANCH  67  77
ATOM     77  CB  THR A   2      -1.124 -15.983   8.671  0.00  0.00    +0.137 C 
ATOM     78  CG2 THR A   2      -0.654 -17.187   7.856  0.00  0.00    +0.034 C 
BRANCH  77  79
ATOM     79  OG1 THR A   2      -1.817 -16.533   9.801  0.00  0.00    -0.382 OA
ATOM     80  HG1 THR A   2      -1.199 -17.109  10.317  0.00  0.00    +0.210 HD
ENDBRANCH  77  79
ENDBRANCH  67  77
ENDBRANCH  60  67
ENDBRANCH  56  62
ENDBRANCH  55  58
BRANCH  55  81
ATOM     81  CB  VAL A   4      -1.592 -19.892  12.967  0.00  0.00    +0.027 C 
ATOM     82  CG2 VAL A   4      -1.044 -19.598  14.369  0.00  0.00    +0.002 C 
ATOM     83  CG1 VAL A   4      -2.313 -21.218  12.946  0.00  0.00    +0.002 C 
ENDBRANCH  55  81
ENDBRANCH  51  55
ENDBRANCH  50  52
BRANCH  50  84
ATOM     84  CB  ASN A   5      -0.750 -22.993   8.181  0.00  0.00    +0.114 C 
BRANCH  84  85
ATOM     85  CG  ASN A   5       0.683 -22.778   7.771  0.00  0.00    +0.222 C 
ATOM     86  ND2 ASN A   5       1.527 -23.695   8.124  0.00  0.00    -0.329 N 
ATOM     87 HD21 ASN A   5       1.199 -24.528   8.653  0.00  0.00    +0.145 HD
ATOM     88 HD22 ASN A   5       2.533 -23.598   7.879  0.00  0.00    +0.145 HD
ATOM     89  OD1 ASN A   5       1.018 -21.787   7.153  0.00  0.00    -0.275 OA
ENDBRANCH  84  85
ENDBRANCH  50  84
ENDBRANCH  46  50
ENDBRANCH   1  48
BRANCH   1  90
ATOM     90  CB  ILE A   6      -5.748 -19.957   8.542  0.00  0.00    +0.027 C 
ATOM     91  CG2 ILE A   6      -7.273 -20.031   8.653  0.00  0.00    +0.002 C 
BRANCH  90  92
ATOM     92  CG1 ILE A   6      -5.111 -19.103   9.655  0.00  0.00    +0.002 C 
ATOM     93  CD1 ILE A   6      -5.365 -19.583  11.040  0.00  0.00    +0.000 C 
ENDBRANCH  90  92
ENDBRANCH   1  90
TORSDOF 33
REMARK  Name = ../refined-set-2016/2p3c/2p3c_pocket.pdb
REMARK  254 active torsions:
REMARK  status: ('A' for Active; 'I' for Inactive)
REMARK    1  A    between atoms: _1  and  _3
REMARK    2  A    between atoms: _3  and  _4
REMARK    3  A    between atoms: _3  and  _6
REMARK    4  A    between atoms: _6  and  _7
REMARK    5  A    between atoms: _7  and  _8
REMARK    6  A    between atoms: _8  and  _9
REMARK    7  A    between atoms: _9  and  _10
REMARK    8  A    between atoms: _14  and  _16
REMARK    9  A    between atoms: _16  and  _17
REMARK   10  A    between atoms: _16  and  _19
REMARK   11  A    between atoms: _19  and  _20
REMARK   12  A    between atoms: _20  and  _21
REMARK   13  A    between atoms: _21  and  _22
REMARK   14  A    between atoms: _31  and  _33
REMARK   15  A    between atoms: _33  and  _34
REMARK   16  A    between atoms: _33  and  _36
REMARK   17  A    between atoms: _36  and  _37
REMARK   18  A    between atoms: _40  and  _42
REMARK   19  A    between atoms: _42  and  _43
REMARK   20  A    between atoms: _42  and  _45
REMARK   21  A    between atoms: _45  and  _46
REMARK   22  A    between atoms: _49  and  _51
REMARK   23  A    between atoms: _51  and  _52
REMARK   24  A    between atoms: _51  and  _54
REMARK   25  A    between atoms: _54  and  _55
REMARK   26  A    between atoms: _58  and  _60
REMARK   27  A    between atoms: _60  and  _61
REMARK   28  A    between atoms: _60  and  _63
REMARK   29  A    between atoms: _63  and  _64
REMARK   30  A    between atoms: _67  and  _69
REMARK   31  A    between atoms: _69  and  _70
REMARK   32  A    between atoms: _72  and  _74
REMARK   33  A    between atoms: _74  and  _75
REMARK   34  A    between atoms: _78  and  _80
REMARK   35  A    between atoms: _80  and  _81
REMARK   36  A    between atoms: _80  and  _83
REMARK   37  A    between atoms: _83  and  _84
REMARK   38  A    between atoms: _87  and  _89
REMARK   39  A    between atoms: _89  and  _90
REMARK   40  A    between atoms: _89  and  _92
REMARK   41  A    between atoms: _92  and  _93
REMARK   42  A    between atoms: _96  and  _98
REMARK   43  A    between atoms: _98  and  _99
REMARK   44  A    between atoms: _98  and  _101
REMARK   45  A    between atoms: _101  and  _102
REMARK   46  A    between atoms: _105  and  _107
REMARK   47  A    between atoms: _107  and  _108
REMARK   48  A    between atoms: _107  and  _110
REMARK   49  A    between atoms: _113  and  _115
REMARK   50  A    between atoms: _115  and  _116
REMARK   51  A    between atoms: _115  and  _118
REMARK   52  A    between atoms: _118  and  _119
REMARK   53  A    between atoms: _119  and  _120
REMARK   54  A    between atoms: _120  and  _121
REMARK   55  A    between atoms: _121  and  _122
REMARK   56  A    between atoms: _126  and  _128
REMARK   57  A    between atoms: _128  and  _129
REMARK   58  A    between atoms: _128  and  _131
REMARK   59  A    between atoms: _131  and  _132
REMARK   60  A    between atoms: _132  and  _133
REMARK   61  A    between atoms: _135  and  _137
REMARK   62  A    between atoms: _137  and  _138
REMARK   63  A    between atoms: _137  and  _140
REMARK   64  A    between atoms: _140  and  _141
REMARK   65  A    between atoms: _144  and  _146
REMARK   66  A    between atoms: _146  and  _147
REMARK   67  A    between atoms: _149  and  _151
REMARK   68  A    between atoms: _151  and  _152
REMARK   69  A    between atoms: _154  and  _156
REMARK   70  A    between atoms: _156  and  _157
REMARK   71  A    between atoms: _156  and  _159
REMARK   72  A    between atoms: _159  and  _160
REMARK   73  A    between atoms: _163  and  _165
REMARK   74  A    between atoms: _165  and  _166
REMARK   75  A    between atoms: _168  and  _170
REMARK   76  A    between atoms: _170  and  _171
REMARK   77  A    between atoms: _173  and  _175
REMARK   78  A    between atoms: _175  and  _176
REMARK   79  A    between atoms: _175  and  _178
REMARK   80  A    between atoms: _178  and  _179
REMARK   81  A    between atoms: _185  and  _187
REMARK   82  A    between atoms: _187  and  _188
REMARK   83  A    between atoms: _187  and  _190
REMARK   84  A    between atoms: _190  and  _191
REMARK   85  A    between atoms: _194  and  _196
REMARK   86  A    between atoms: _196  and  _197
REMARK   87  A    between atoms: _196  and  _199
REMARK   88  A    between atoms: _202  and  _204
REMARK   89  A    between atoms: _204  and  _205
REMARK   90  A    between atoms: _204  and  _207
REMARK   91  A    between atoms: _207  and  _208
REMARK   92  A    between atoms: _208  and  _209
REMARK   93  A    between atoms: _214  and  _216
REMARK   94  A    between atoms: _216  and  _217
REMARK   95  A    between atoms: _216  and  _219
REMARK   96  A    between atoms: _219  and  _220
REMARK   97  A    between atoms: _224  and  _225
REMARK   98  A    between atoms: _230  and  _232
REMARK   99  A    between atoms: _232  and  _233
REMARK  100  A    between atoms: _232  and  _235
REMARK  101  A    between atoms: _235  and  _236
REMARK  102  A    between atoms: _240  and  _241
REMARK  103  A    between atoms: _246  and  _248
REMARK  104  A    between atoms: _248  and  _249
REMARK  105  A    between atoms: _248  and  _251
REMARK  106  A    between atoms: _254  and  _256
REMARK  107  A    between atoms: _256  and  _257
REMARK  108  A    between atoms: _256  and  _259
REMARK  109  A    between atoms: _259  and  _260
REMARK  110  A    between atoms: _265  and  _267
REMARK  111  A    between atoms: _267  and  _268
REMARK  112  A    between atoms: _267  and  _270
REMARK  113  A    between atoms: _270  and  _271
REMARK  114  A    between atoms: _274  and  _276
REMARK  115  A    between atoms: _276  and  _277
REMARK  116  A    between atoms: _276  and  _279
REMARK  117  A    between atoms: _279  and  _280
REMARK  118  A    between atoms: _283  and  _285
REMARK  119  A    between atoms: _285  and  _286
REMARK  120  A    between atoms: _288  and  _290
REMARK  121  A    between atoms: _290  and  _291
REMARK  122  A    between atoms: _290  and  _293
REMARK  123  A    between atoms: _293  and  _294
REMARK  124  A    between atoms: _294  and  _295
REMARK  125  A    between atoms: _295  and  _296
REMARK  126  A    between atoms: _305  and  _307
REMARK  127  A    between atoms: _307  and  _308
REMARK  128  A    between atoms: _307  and  _310
REMARK  129  A    between atoms: _310  and  _311
REMARK  130  A    between atoms: _316  and  _318
REMARK  131  A    between atoms: _318  and  _319
REMARK  132  A    between atoms: _318  and  _321
REMARK  133  A    between atoms: _321  and  _322
REMARK  134  A    between atoms: _322  and  _323
REMARK  135  A    between atoms: _323  and  _324
REMARK  136  A    between atoms: _324  and  _325
REMARK  137  A    between atoms: _329  and  _331
REMARK  138  A    between atoms: _331  and  _332
REMARK  139  A    between atoms: _331  and  _334
REMARK  140  A    between atoms: _334  and  _335
REMARK  141  A    between atoms: _335  and  _336
REMARK  142  A    between atoms: _336  and  _337
REMARK  143  A    between atoms: _346  and  _348
REMARK  144  A    between atoms: _348  and  _349
REMARK  145  A    between atoms: _348  and  _351
REMARK  146  A    between atoms: _351  and  _352
REMARK  147  A    between atoms: _355  and  _357
REMARK  148  A    between atoms: _357  and  _358
REMARK  149  A    between atoms: _357  and  _360
REMARK  150  A    between atoms: _360  and  _361
REMARK  151  A    between atoms: _364  and  _366
REMARK  152  A    between atoms: _366  and  _367
REMARK  153  A    between atoms: _366  and  _369
REMARK  154  A    between atoms: _369  and  _370
REMARK  155  A    between atoms: _373  and  _375
REMARK  156  A    between atoms: _375  and  _376
REMARK  157  A    between atoms: _375  and  _378
REMARK  158  A    between atoms: _378  and  _379
REMARK  159  A    between atoms: _382  and  _384
REMARK  160  A    between atoms: _384  and  _385
REMARK  161  A    between atoms: _387  and  _389
REMARK  162  A    between atoms: _389  and  _390
REMARK  163  A    between atoms: _393  and  _395
REMARK  164  A    between atoms: _395  and  _396
REMARK  165  A    between atoms: _395  and  _398
REMARK  166  A    between atoms: _398  and  _399
REMARK  167  A    between atoms: _402  and  _404
REMARK  168  A    between atoms: _404  and  _405
REMARK  169  A    between atoms: _404  and  _407
REMARK  170  A    between atoms: _407  and  _408
REMARK  171  A    between atoms: _411  and  _413
REMARK  172  A    between atoms: _413  and  _414
REMARK  173  A    between atoms: _413  and  _416
REMARK  174  A    between atoms: _416  and  _417
REMARK  175  A    between atoms: _420  and  _422
REMARK  176  A    between atoms: _422  and  _423
REMARK  177  A    between atoms: _422  and  _425
REMARK  178  A    between atoms: _428  and  _430
REMARK  179  A    between atoms: _430  and  _431
REMARK  180  A    between atoms: _430  and  _433
REMARK  181  A    between atoms: _433  and  _434
REMARK  182  A    between atoms: _434  and  _435
REMARK  183  A    between atoms: _435  and  _436
REMARK  184  A    between atoms: _436  and  _437
REMARK  185  A    between atoms: _441  and  _443
REMARK  186  A    between atoms: _443  and  _444
REMARK  187  A    between atoms: _443  and  _446
REMARK  188  A    between atoms: _446  and  _447
REMARK  189  A    between atoms: _447  and  _448
REMARK  190  A    between atoms: _450  and  _452
REMARK  191  A    between atoms: _452  and  _453
REMARK  192  A    between atoms: _452  and  _455
REMARK  193  A    between atoms: _455  and  _456
REMARK  194  A    between atoms: _459  and  _461
REMARK  195  A    between atoms: _461  and  _462
REMARK  196  A    between atoms: _464  and  _466
REMARK  197  A    between atoms: _466  and  _467
REMARK  198  A    between atoms: _469  and  _471
REMARK  199  A    between atoms: _471  and  _472
REMARK  200  A    between atoms: _471  and  _474
REMARK  201  A    between atoms: _474  and  _475
REMARK  202  A    between atoms: _478  and  _480
REMARK  203  A    between atoms: _480  and  _481
REMARK  204  A    between atoms: _483  and  _485
REMARK  205  A    between atoms: _485  and  _486
REMARK  206  A    between atoms: _488  and  _490
REMARK  207  A    between atoms: _490  and  _491
REMARK  208  A    between atoms: _490  and  _493
REMARK  209  A    between atoms: _493  and  _494
REMARK  210  A    between atoms: _500  and  _502
REMARK  211  A    between atoms: _502  and  _503
REMARK  212  A    between atoms: _502  and  _505
REMARK  213  A    between atoms: _505  and  _506
REMARK  214  A    between atoms: _509  and  _511
REMARK  215  A    between atoms: _511  and  _512
REMARK  216  A    between atoms: _511  and  _514
REMARK  217  A    between atoms: _517  and  _519
REMARK  218  A    between atoms: _519  and  _520
REMARK  219  A    between atoms: _519  and  _522
REMARK  220  A    between atoms: _522  and  _523
REMARK  221  A    between atoms: _523  and  _524
REMARK  222  A    between atoms: _529  and  _531
REMARK  223  A    between atoms: _531  and  _532
REMARK  224  A    between atoms: _531  and  _534
REMARK  225  A    between atoms: _534  and  _535
REMARK  226  A    between atoms: _539  and  _540
REMARK  227  A    between atoms: _545  and  _547
REMARK  228  A    between atoms: _547  and  _548
REMARK  229  A    between atoms: _547  and  _550
REMARK  230  A    between atoms: _550  and  _551
REMARK  231  A    between atoms: _555  and  _556
REMARK  232  A    between atoms: _561  and  _563
REMARK  233  A    between atoms: _563  and  _564
REMARK  234  A    between atoms: _563  and  _566
REMARK  235  A    between atoms: _569  and  _571
REMARK  236  A    between atoms: _571  and  _572
REMARK  237  A    between atoms: _571  and  _574
REMARK  238  A    between atoms: _574  and  _575
REMARK  239  A    between atoms: _580  and  _582
REMARK  240  A    between atoms: _582  and  _583
REMARK  241  A    between atoms: _582  and  _585
REMARK  242  A    between atoms: _585  and  _586
REMARK  243  A    between atoms: _589  and  _591
REMARK  244  A    between atoms: _591  and  _592
REMARK  245  A    between atoms: _591  and  _594
REMARK  246  A    between atoms: _594  and  _595
REMARK  247  A    between atoms: _598  and  _600
REMARK  248  A    between atoms: _600  and  _601
REMARK  249  A    between atoms: _603  and  _605
REMARK  250  A    between atoms: _605  and  _606
REMARK  251  A    between atoms: _605  and  _608
REMARK  252  A    between atoms: _608  and  _609
REMARK  253  A    between atoms: _609  and  _610
REMARK  254  A    between atoms: _610  and  _611
REMARK                            x       y       z     vdW  Elec       q    Type
REMARK                         _______ _______ _______ _____ _____    ______ ____
ROOT
ATOM      1  C   LYS A   1     -20.770 -19.799   6.910  0.00  0.00    +0.238 C 
ATOM      2  O   LYS A   1     -20.565 -20.849   7.533  0.00  0.00    -0.274 OA
ATOM      3  N   ARG A   2     -20.383 -18.600   7.332  0.00  0.00    -0.298 N 
ATOM      4  H   ARG A   2     -20.383 -17.806   6.660  0.00  0.00    +0.150 HD
ENDROOT
BRANCH   1   5
ATOM      5  CA  LYS A   1     -21.454 -19.808   5.560  0.00  0.00    +0.145 C 
BRANCH   5   6
ATOM      6  N   LYS A   1     -21.533 -21.162   5.039  0.00  0.00    -0.238 NA
ATOM      7  H   LYS A   1     -22.021 -21.903   5.582  0.00  0.00    +0.142 HD
ENDBRANCH   5   6
BRANCH   5   8
ATOM      8  CB  LYS A   1     -22.834 -19.142   5.648  0.00  0.00    +0.026 C 
BRANCH   8   9
ATOM      9  CG  LYS A   1     -22.767 -17.635   6.044  0.00  0.00    -0.000 C 
BRANCH   9  10
ATOM     10  CD  LYS A   1     -21.826 -16.862   5.113  0.00  0.00    -0.024 C 
BRANCH  10  11
ATOM     11  CE  LYS A   1     -21.220 -15.641   5.770  0.00  0.00    -0.086 C 
BRANCH  11  12
ATOM     12  NZ  LYS A   1     -20.015 -15.211   4.998  0.00  0.00    +0.380 N 
ATOM     13  HZ1 LYS A   1     -19.597 -14.372   5.449  0.00  0.00    -0.089 HD
ATOM     14  HZ2 LYS A   1     -19.318 -15.983   4.987  0.00  0.00    -0.089 HD
ATOM     15  HZ3 LYS A   1     -20.294 -14.980   4.023  0.00  0.00    -0.089 HD
ENDBRANCH  11  12
ENDBRANCH  10  11
ENDBRANCH   9  10
ENDBRANCH   8   9
ENDBRANCH   5   8
ENDBRANCH   1   5
BRANCH   3  16
ATOM     16  CA  ARG A   2     -19.963 -18.363   8.690  0.00  0.00    +0.137 C 
BRANCH  16  17
ATOM     17  C   ARG A   2     -20.874 -19.104   9.666  0.00  0.00    +0.227 C 
ATOM     18  O   ARG A   2     -22.104 -18.989   9.601  0.00  0.00    -0.286 OA
ENDBRANCH  16  17
BRANCH  16  19
ATOM     19  CB  ARG A   2     -19.982 -16.879   8.994  0.00  0.00    +0.031 C 
BRANCH  19  20
ATOM     20  CG  ARG A   2     -18.752 -16.149   8.518  0.00  0.00    +0.045 C 
BRANCH  20  21
ATOM     21  CD  ARG A   2     -18.643 -14.782   9.122  0.00  0.00    +0.174 C 
BRANCH  21  22
ATOM     22  NE  ARG A   2     -19.857 -14.001   8.909  0.00  0.00    -0.265 N 
ATOM     23  CZ  ARG A   2     -20.282 -13.035   9.719  0.00  0.00    +0.342 C 
ATOM     24  NH2 ARG A   2     -19.607 -12.726  10.824  0.00  0.00    -0.292 N 
ATOM     25 HH21 ARG A   2     -19.950 -11.969  11.448  0.00  0.00    +0.255 HD
ATOM     26 HH22 ARG A   2     -18.736 -13.242  11.063  0.00  0.00    +0.255 HD
ATOM     27  NH1 ARG A   2     -21.396 -12.393   9.430  0.00  0.00    -0.292 N 
ATOM     28 HH11 ARG A   2     -21.737 -11.636  10.056  0.00  0.00    +0.255 HD
ATOM     29 HH12 ARG A   2     -21.934 -12.643   8.576  0.00  0.00    +0.255 HD
ATOM     30  HE  ARG A   2     -20.429 -14.214   8.067  0.00  0.00    +0.259 HD
ENDBRANCH  21  22
ENDBRANCH  20  21
ENDBRANCH  19  20
ENDBRANCH  16  19
ENDBRANCH   3  16
TORSDOF 13
REMARK  Name = ../refined-set-2016/2p3c/2p3c_pocket.pdb
REMARK  254 active torsions:
REMARK  status: ('A' for Active; 'I' for Inactive)
REMARK    1  A    between atoms: _1  and  _3
REMARK    2  A    between atoms: _3  and  _4
REMARK    3  A    between atoms: _3  and  _6
REMARK    4  A    between atoms: _6  and  _7
REMARK    5  A    between atoms: _7  and  _8
REMARK    6  A    between atoms: _8  and  _9
REMARK    7  A    between atoms: _9  and  _10
REMARK    8  A    between atoms: _14  and  _16
REMARK    9  A    between atoms: _16  and  _17
REMARK   10  A    between atoms: _16  and  _19
REMARK   11  A    between atoms: _19  and  _20
REMARK   12  A    between atoms: _20  and  _21
REMARK   13  A    between atoms: _21  and  _22
REMARK   14  A    between atoms: _31  and  _33
REMARK   15  A    between atoms: _33  and  _34
REMARK   16  A    between atoms: _33  and  _36
REMARK   17  A    between atoms: _36  and  _37
REMARK   18  A    between atoms: _40  and  _42
REMARK   19  A    between atoms: _42  and  _43
REMARK   20  A    between atoms: _42  and  _45
REMARK   21  A    between atoms: _45  and  _46
REMARK   22  A    between atoms: _49  and  _51
REMARK   23  A    between atoms: _51  and  _52
REMARK   24  A    between atoms: _51  and  _54
REMARK   25  A    between atoms: _54  and  _55
REMARK   26  A    between atoms: _58  and  _60
REMARK   27  A    between atoms: _60  and  _61
REMARK   28  A    between atoms: _60  and  _63
REMARK   29  A    between atoms: _63  and  _64
REMARK   30  A    between atoms: _67  and  _69
REMARK   31  A    between atoms: _69  and  _70
REMARK   32  A    between atoms: _72  and  _74
REMARK   33  A    between atoms: _74  and  _75
REMARK   34  A    between atoms: _78  and  _80
REMARK   35  A    between atoms: _80  and  _81
REMARK   36  A    between atoms: _80  and  _83
REMARK   37  A    between atoms: _83  and  _84
REMARK   38  A    between atoms: _87  and  _89
REMARK   39  A    between atoms: _89  and  _90
REMARK   40  A    between atoms: _89  and  _92
REMARK   41  A    between atoms: _92  and  _93
REMARK   42  A    between atoms: _96  and  _98
REMARK   43  A    between atoms: _98  and  _99
REMARK   44  A    between atoms: _98  and  _101
REMARK   45  A    between atoms: _101  and  _102
REMARK   46  A    between atoms: _105  and  _107
REMARK   47  A    between atoms: _107  and  _108
REMARK   48  A    between atoms: _107  and  _110
REMARK   49  A    between atoms: _113  and  _115
REMARK   50  A    between atoms: _115  and  _116
REMARK   51  A    between atoms: _115  and  _118
REMARK   52  A    between atoms: _118  and  _119
REMARK   53  A    between atoms: _119  and  _120
REMARK   54  A    between atoms: _120  and  _121
REMARK   55  A    between atoms: _121  and  _122
REMARK   56  A    between atoms: _126  and  _128
REMARK   57  A    between atoms: _128  and  _129
REMARK   58  A    between atoms: _128  and  _131
REMARK   59  A    between atoms: _131  and  _132
REMARK   60  A    between atoms: _132  and  _133
REMARK   61  A    between atoms: _135  and  _137
REMARK   62  A    between atoms: _137  and  _138
REMARK   63  A    between atoms: _137  and  _140
REMARK   64  A    between atoms: _140  and  _141
REMARK   65  A    between atoms: _144  and  _146
REMARK   66  A    between atoms: _146  and  _147
REMARK   67  A    between atoms: _149  and  _151
REMARK   68  A    between atoms: _151  and  _152
REMARK   69  A    between atoms: _154  and  _156
REMARK   70  A    between atoms: _156  and  _157
REMARK   71  A    between atoms: _156  and  _159
REMARK   72  A    between atoms: _159  and  _160
REMARK   73  A    between atoms: _163  and  _165
REMARK   74  A    between atoms: _165  and  _166
REMARK   75  A    between atoms: _168  and  _170
REMARK   76  A    between atoms: _170  and  _171
REMARK   77  A    between atoms: _173  and  _175
REMARK   78  A    between atoms: _175  and  _176
REMARK   79  A    between atoms: _175  and  _178
REMARK   80  A    between atoms: _178  and  _179
REMARK   81  A    between atoms: _185  and  _187
REMARK   82  A    between atoms: _187  and  _188
REMARK   83  A    between atoms: _187  and  _190
REMARK   84  A    between atoms: _190  and  _191
REMARK   85  A    between atoms: _194  and  _196
REMARK   86  A    between atoms: _196  and  _197
REMARK   87  A    between atoms: _196  and  _199
REMARK   88  A    between atoms: _202  and  _204
REMARK   89  A    between atoms: _204  and  _205
REMARK   90  A    between atoms: _204  and  _207
REMARK   91  A    between atoms: _207  and  _208
REMARK   92  A    between atoms: _208  and  _209
REMARK   93  A    between atoms: _214  and  _216
REMARK   94  A    between atoms: _216  and  _217
REMARK   95  A    between atoms: _216  and  _219
REMARK   96  A    between atoms: _219  and  _220
REMARK   97  A    between atoms: _224  and  _225
REMARK   98  A    between atoms: _230  and  _232
REMARK   99  A    between atoms: _232  and  _233
REMARK  100  A    between atoms: _232  and  _235
REMARK  101  A    between atoms: _235  and  _236
REMARK  102  A    between atoms: _240  and  _241
REMARK  103  A    between atoms: _246  and  _248
REMARK  104  A    between atoms: _248  and  _249
REMARK  105  A    between atoms: _248  and  _251
REMARK  106  A    between atoms: _254  and  _256
REMARK  107  A    between atoms: _256  and  _257
REMARK  108  A    between atoms: _256  and  _259
REMARK  109  A    between atoms: _259  and  _260
REMARK  110  A    between atoms: _265  and  _267
REMARK  111  A    between atoms: _267  and  _268
REMARK  112  A    between atoms: _267  and  _270
REMARK  113  A    between atoms: _270  and  _271
REMARK  114  A    between atoms: _274  and  _276
REMARK  115  A    between atoms: _276  and  _277
REMARK  116  A    between atoms: _276  and  _279
REMARK  117  A    between atoms: _279  and  _280
REMARK  118  A    between atoms: _283  and  _285
REMARK  119  A    between atoms: _285  and  _286
REMARK  120  A    between atoms: _288  and  _290
REMARK  121  A    between atoms: _290  and  _291
REMARK  122  A    between atoms: _290  and  _293
REMARK  123  A    between atoms: _293  and  _294
REMARK  124  A    between atoms: _294  and  _295
REMARK  125  A    between atoms: _295  and  _296
REMARK  126  A    between atoms: _305  and  _307
REMARK  127  A    between atoms: _307  and  _308
REMARK  128  A    between atoms: _307  and  _310
REMARK  129  A    between atoms: _310  and  _311
REMARK  130  A    between atoms: _316  and  _318
REMARK  131  A    between atoms: _318  and  _319
REMARK  132  A    between atoms: _318  and  _321
REMARK  133  A    between atoms: _321  and  _322
REMARK  134  A    between atoms: _322  and  _323
REMARK  135  A    between atoms: _323  and  _324
REMARK  136  A    between atoms: _324  and  _325
REMARK  137  A    between atoms: _329  and  _331
REMARK  138  A    between atoms: _331  and  _332
REMARK  139  A    between atoms: _331  and  _334
REMARK  140  A    between atoms: _334  and  _335
REMARK  141  A    between atoms: _335  and  _336
REMARK  142  A    between atoms: _336  and  _337
REMARK  143  A    between atoms: _346  and  _348
REMARK  144  A    between atoms: _348  and  _349
REMARK  145  A    between atoms: _348  and  _351
REMARK  146  A    between atoms: _351  and  _352
REMARK  147  A    between atoms: _355  and  _357
REMARK  148  A    between atoms: _357  and  _358
REMARK  149  A    between atoms: _357  and  _360
REMARK  150  A    between atoms: _360  and  _361
REMARK  151  A    between atoms: _364  and  _366
REMARK  152  A    between atoms: _366  and  _367
REMARK  153  A    between atoms: _366  and  _369
REMARK  154  A    between atoms: _369  and  _370
REMARK  155  A    between atoms: _373  and  _375
REMARK  156  A    between atoms: _375  and  _376
REMARK  157  A    between atoms: _375  and  _378
REMARK  158  A    between atoms: _378  and  _379
REMARK  159  A    between atoms: _382  and  _384
REMARK  160  A    between atoms: _384  and  _385
REMARK  161  A    between atoms: _387  and  _389
REMARK  162  A    between atoms: _389  and  _390
REMARK  163  A    between atoms: _393  and  _395
REMARK  164  A    between atoms: _395  and  _396
REMARK  165  A    between atoms: _395  and  _398
REMARK  166  A    between atoms: _398  and  _399
REMARK  167  A    between atoms: _402  and  _404
REMARK  168  A    between atoms: _404  and  _405
REMARK  169  A    between atoms: _404  and  _407
REMARK  170  A    between atoms: _407  and  _408
REMARK  171  A    between atoms: _411  and  _413
REMARK  172  A    between atoms: _413  and  _414
REMARK  173  A    between atoms: _413  and  _416
REMARK  174  A    between atoms: _416  and  _417
REMARK  175  A    between atoms: _420  and  _422
REMARK  176  A    between atoms: _422  and  _423
REMARK  177  A    between atoms: _422  and  _425
REMARK  178  A    between atoms: _428  and  _430
REMARK  179  A    between atoms: _430  and  _431
REMARK  180  A    between atoms: _430  and  _433
REMARK  181  A    between atoms: _433  and  _434
REMARK  182  A    between atoms: _434  and  _435
REMARK  183  A    between atoms: _435  and  _436
REMARK  184  A    between atoms: _436  and  _437
REMARK  185  A    between atoms: _441  and  _443
REMARK  186  A    between atoms: _443  and  _444
REMARK  187  A    between atoms: _443  and  _446
REMARK  188  A    between atoms: _446  and  _447
REMARK  189  A    between atoms: _447  and  _448
REMARK  190  A    between atoms: _450  and  _452
REMARK  191  A    between atoms: _452  and  _453
REMARK  192  A    between atoms: _452  and  _455
REMARK  193  A    between atoms: _455  and  _456
REMARK  194  A    between atoms: _459  and  _461
REMARK  195  A    between atoms: _461  and  _462
REMARK  196  A    between atoms: _464  and  _466
REMARK  197  A    between atoms: _466  and  _467
REMARK  198  A    between atoms: _469  and  _471
REMARK  199  A    between atoms: _471  and  _472
REMARK  200  A    between atoms: _471  and  _474
REMARK  201  A    between atoms: _474  and  _475
REMARK  202  A    between atoms: _478  and  _480
REMARK  203  A    between atoms: _480  and  _481
REMARK  204  A    between atoms: _483  and  _485
REMARK  205  A    between atoms: _485  and  _486
REMARK  206  A    between atoms: _488  and  _490
REMARK  207  A    between atoms: _490  and  _491
REMARK  208  A    between atoms: _490  and  _493
REMARK  209  A    between atoms: _493  and  _494
REMARK  210  A    between atoms: _500  and  _502
REMARK  211  A    between atoms: _502  and  _503
REMARK  212  A    between atoms: _502  and  _505
REMARK  213  A    between atoms: _505  and  _506
REMARK  214  A    between atoms: _509  and  _511
REMARK  215  A    between atoms: _511  and  _512
REMARK  216  A    between atoms: _511  and  _514
REMARK  217  A    between atoms: _517  and  _519
REMARK  218  A    between atoms: _519  and  _520
REMARK  219  A    between atoms: _519  and  _522
REMARK  220  A    between atoms: _522  and  _523
REMARK  221  A    between atoms: _523  and  _524
REMARK  222  A    between atoms: _529  and  _531
REMARK  223  A    between atoms: _531  and  _532
REMARK  224  A    between atoms: _531  and  _534
REMARK  225  A    between atoms: _534  and  _535
REMARK  226  A    between atoms: _539  and  _540
REMARK  227  A    between atoms: _545  and  _547
REMARK  228  A    between atoms: _547  and  _548
REMARK  229  A    between atoms: _547  and  _550
REMARK  230  A    between atoms: _550  and  _551
REMARK  231  A    between atoms: _555  and  _556
REMARK  232  A    between atoms: _561  and  _563
REMARK  233  A    between atoms: _563  and  _564
REMARK  234  A    between atoms: _563  and  _566
REMARK  235  A    between atoms: _569  and  _571
REMARK  236  A    between atoms: _571  and  _572
REMARK  237  A    between atoms: _571  and  _574
REMARK  238  A    between atoms: _574  and  _575
REMARK  239  A    between atoms: _580  and  _582
REMARK  240  A    between atoms: _582  and  _583
REMARK  241  A    between atoms: _582  and  _585
REMARK  242  A    between atoms: _585  and  _586
REMARK  243  A    between atoms: _589  and  _591
REMARK  244  A    between atoms: _591  and  _592
REMARK  245  A    between atoms: _591  and  _594
REMARK  246  A    between atoms: _594  and  _595
REMARK  247  A    between atoms: _598  and  _600
REMARK  248  A    between atoms: _600  and  _601
REMARK  249  A    between atoms: _603  and  _605
REMARK  250  A    between atoms: _605  and  _606
REMARK  251  A    between atoms: _605  and  _608
REMARK  252  A    between atoms: _608  and  _609
REMARK  253  A    between atoms: _609  and  _610
REMARK  254  A    between atoms: _610  and  _611
REMARK                            x       y       z     vdW  Elec       q    Type
REMARK                         _______ _______ _______ _____ _____    ______ ____
ROOT
ATOM      1  C   GLY A   5      -9.026 -20.101  16.513  0.00  0.00    +0.243 C 
ATOM      2  N   ALA A   6      -9.942 -20.037  17.472  0.00  0.00    -0.297 N 
ATOM      3  H   ALA A   6     -10.774 -20.658  17.411  0.00  0.00    +0.150 HD
ATOM      4  O   GLY A   5      -8.050 -19.383  16.502  0.00  0.00    -0.273 OA
ENDROOT
BRANCH   2   5
ATOM      5  CA  ALA A   6      -9.827 -19.128  18.609  0.00  0.00    +0.149 C 
ATOM      6  CB  ALA A   6     -11.102 -18.279  18.747  0.00  0.00    +0.031 C 
BRANCH   5   7
ATOM      7  C   ALA A   6      -9.637 -19.960  19.852  0.00  0.00    +0.241 C 
ATOM      8  N   ASP A   7      -8.521 -19.758  20.543  0.00  0.00    -0.297 N 
ATOM      9  H   ASP A   7      -7.772 -19.163  20.135  0.00  0.00    +0.150 HD
ATOM     10  O   ALA A   6     -10.472 -20.784  20.175  0.00  0.00    -0.273 OA
BRANCH   8  11
ATOM     11  CA  ASP A   7      -8.322 -20.351  21.860  0.00  0.00    +0.160 C 
BRANCH  11  12
ATOM     12  C   ASP A   7      -9.422 -19.834  22.771  0.00  0.00    +0.241 C 
ATOM     13  O   ASP A   7     -10.017 -20.600  23.538  0.00  0.00    -0.273 OA
ATOM     14  N   ASP A   8      -9.712 -18.541  22.641  0.00  0.00    -0.297 N 
ATOM     15  H   ASP A   8      -9.359 -18.038  21.802  0.00  0.00    +0.150 HD
BRANCH  14  16
ATOM     16  CA  ASP A   8     -10.493 -17.799  23.607  0.00  0.00    +0.160 C 
BRANCH  16  17
ATOM     17  C   ASP A   8     -11.791 -17.264  23.009  0.00  0.00    +0.241 C 
ATOM     18  N   THR A   9     -12.716 -16.931  23.887  0.00  0.00    -0.295 N 
ATOM     19  H   THR A   9     -12.514 -17.047  24.901  0.00  0.00    +0.150 HD
ATOM     20  O   ASP A   8     -11.945 -17.134  21.786  0.00  0.00    -0.273 OA
BRANCH  18  21
ATOM     21  CA  THR A   9     -13.995 -16.412  23.487  0.00  0.00    +0.176 C 
BRANCH  21  22
ATOM     22  C   THR A   9     -13.948 -14.929  23.671  0.00  0.00    +0.243 C 
ATOM     23  O   THR A   9     -13.651 -14.462  24.747  0.00  0.00    -0.273 OA
ATOM     24  N   VAL A  10     -14.190 -14.187  22.603  0.00  0.00    -0.298 N 
ATOM     25  H   VAL A  10     -14.479 -14.646  21.716  0.00  0.00    +0.150 HD
BRANCH  24  26
ATOM     26  CA  VAL A  10     -14.057 -12.724  22.651  0.00  0.00    +0.137 C 
BRANCH  26  27
ATOM     27  CB  VAL A  10     -12.895 -12.219  21.771  0.00  0.00    +0.026 C 
ATOM     28  CG2 VAL A  10     -12.538 -10.760  22.171  0.00  0.00    +0.002 C 
ATOM     29  CG1 VAL A  10     -11.703 -13.141  21.893  0.00  0.00    +0.002 C 
ENDBRANCH  26  27
BRANCH  26  30
ATOM     30  C   VAL A  10     -15.322 -12.019  22.182  0.00  0.00    +0.227 C 
ATOM     31  O   VAL A  10     -15.785 -12.248  21.075  0.00  0.00    -0.286 OA
ENDBRANCH  26  30
ENDBRANCH  24  26
ENDBRANCH  21  22
BRANCH  21  32
ATOM     32  CB  THR A   9     -15.049 -17.042  24.357  0.00  0.00    +0.137 C 
ATOM     33  CG2 THR A   9     -16.459 -16.379  24.168  0.00  0.00    +0.034 C 
BRANCH  32  34
ATOM     34  OG1 THR A   9     -15.236 -18.363  23.877  0.00  0.00    -0.382 OA
ATOM     35  HG1 THR A   9     -14.382 -18.860  23.941  0.00  0.00    +0.210 HD
ENDBRANCH  32  34
ENDBRANCH  21  32
ENDBRANCH  18  21
ENDBRANCH  16  17
BRANCH  16  36
ATOM     36  CB  ASP A   8      -9.663 -16.604  24.102  0.00  0.00    +0.143 C 
BRANCH  36  37
ATOM     37  CG  ASP A   8      -8.303 -17.017  24.668  0.00  0.00    +0.367 C 
ATOM     38  OD2 ASP A   8      -8.254 -17.888  25.557  0.00  0.00    -0.246 OA
ATOM     39  OD1 ASP A   8      -7.222 -16.527  24.272  0.00  0.00    -0.246 OA
ENDBRANCH  36  37
ENDBRANCH  16  36
ENDBRANCH  14  16
ENDBRANCH  11  12
BRANCH  11  40
ATOM     40  CB  ASP A   7      -6.955 -19.952  22.466  0.00  0.00    +0.143 C 
BRANCH  40  41
ATOM     41  CG  ASP A   7      -5.792 -20.018  21.462  0.00  0.00    +0.367 C 
ATOM     42  OD2 ASP A   7      -4.765 -19.326  21.593  0.00  0.00    -0.246 OA
ATOM     43  OD1 ASP A   7      -5.870 -20.748  20.452  0.00  0.00    -0.246 OA
ENDBRANCH  40  41
ENDBRANCH  11  40
ENDBRANCH   8  11
ENDBRANCH   5   7
ENDBRANCH   2   5
BRANCH   1  44
ATOM     44  CA  GLY A   5      -9.230 -21.115  15.401  0.00  0.00    +0.176 C 
BRANCH  44  47
ATOM     45  C   THR A   4     -10.766 -22.899  16.117  0.00  0.00    +0.243 C 
ATOM     46  O   THR A   4      -9.918 -23.511  16.733  0.00  0.00    -0.273 OA
ATOM     47  N   GLY A   5     -10.515 -21.790  15.423  0.00  0.00    -0.295 N 
ATOM     48  H   GLY A   5     -11.289 -21.382  14.861  0.00  0.00    +0.150 HD
BRANCH  45  49
ATOM     49  CA  THR A   4     -12.204 -23.406  16.127  0.00  0.00    +0.176 C 
BRANCH  49  52
ATOM     50  C   ASP A   3     -13.376 -21.305  16.472  0.00  0.00    +0.241 C 
ATOM     51  O   ASP A   3     -12.807 -21.124  17.554  0.00  0.00    -0.273 OA
ATOM     52  N   THR A   4     -13.171 -22.385  15.735  0.00  0.00    -0.295 N 
ATOM     53  H   THR A   4     -13.712 -22.509  14.855  0.00  0.00    +0.150 HD
BRANCH  50  54
ATOM     54  CA  ASP A   3     -14.414 -20.310  15.914  0.00  0.00    +0.160 C 
BRANCH  54  56
ATOM     55  C   LEU A   2     -16.766 -20.805  15.743  0.00  0.00    +0.241 C 
ATOM     56  N   ASP A   3     -15.713 -20.532  16.498  0.00  0.00    -0.297 N 
ATOM     57  H   ASP A   3     -15.825 -20.477  17.530  0.00  0.00    +0.150 HD
ATOM     58  O   LEU A   2     -16.694 -21.079  14.531  0.00  0.00    -0.273 OA
BRANCH  55  59
ATOM     59  CA  LEU A   2     -18.110 -20.686  16.441  0.00  0.00    +0.149 C 
BRANCH  59  62
ATOM     60  C   LEU A   1     -18.354 -18.267  16.210  0.00  0.00    +0.238 C 
ATOM     61  O   LEU A   1     -17.530 -18.018  17.070  0.00  0.00    -0.274 OA
ATOM     62  N   LEU A   2     -18.745 -19.500  15.911  0.00  0.00    -0.297 N 
ATOM     63  H   LEU A   2     -19.549 -19.619  15.262  0.00  0.00    +0.150 HD
BRANCH  60  64
ATOM     64  CA  LEU A   1     -19.027 -17.138  15.456  0.00  0.00    +0.145 C 
BRANCH  64  65
ATOM     65  N   LEU A   1     -19.605 -16.240  16.414  0.00  0.00    -0.238 NA
ATOM     66  H   LEU A   1     -18.975 -15.580  16.913  0.00  0.00    +0.142 HD
ENDBRANCH  64  65
BRANCH  64  67
ATOM     67  CB  LEU A   1     -17.993 -16.341  14.683  0.00  0.00    +0.026 C 
BRANCH  67  68
ATOM     68  CG  LEU A   1     -17.176 -16.980  13.586  0.00  0.00    +0.002 C 
ATOM     69  CD2 LEU A   1     -15.929 -16.101  13.401  0.00  0.00    +0.000 C 
ATOM     70  CD1 LEU A   1     -17.966 -17.058  12.339  0.00  0.00    +0.000 C 
ENDBRANCH  67  68
ENDBRANCH  64  67
ENDBRANCH  60  64
ENDBRANCH  59  62
BRANCH  59  71
ATOM     71  CB  LEU A   2     -18.982 -21.911  16.174  0.00  0.00    +0.029 C 
BRANCH  71  72
ATOM     72  CG  LEU A   2     -20.406 -21.911  16.735  0.00  0.00    +0.002 C 
ATOM     73  CD2 LEU A   2     -20.427 -21.783  18.295  0.00  0.00    +0.000 C 
ATOM     74  CD1 LEU A   2     -21.072 -23.175  16.298  0.00  0.00    +0.000 C 
ENDBRANCH  71  72
ENDBRANCH  59  71
ENDBRANCH  55  59
ENDBRANCH  54  56
BRANCH  54  75
ATOM     75  CB  ASP A   3     -14.009 -18.869  16.159  0.00  0.00    +0.143 C 
BRANCH  75  76
ATOM     76  CG  ASP A   3     -12.750 -18.507  15.481  0.00  0.00    +0.367 C 
ATOM     77  OD2 ASP A   3     -12.231 -17.408  15.627  0.00  0.00    -0.246 OA
ATOM     78  OD1 ASP A   3     -12.184 -19.320  14.743  0.00  0.00    -0.246 OA
ENDBRANCH  75  76
ENDBRANCH  54  75
ENDBRANCH  50  54
ENDBRANCH  49  52
BRANCH  49  79
ATOM     79  CB  THR A   4     -12.288 -24.629  15.234  0.00  0.00    +0.137 C 
ATOM     80  CG2 THR A   4     -13.629 -25.244  15.310  0.00  0.00    +0.034 C 
BRANCH  79  81
ATOM     81  OG1 THR A   4     -12.151 -24.235  13.871  0.00  0.00    -0.382 OA
ATOM     82  HG1 THR A   4     -11.275 -23.793  13.743  0.00  0.00    +0.210 HD
ENDBRANCH  79  81
ENDBRANCH  49  79
ENDBRANCH  45  49
ENDBRANCH  44  47
ENDBRANCH   1  44
TORSDOF 35
REMARK  Name = ../refined-set-2016/2p3c/2p3c_pocket.pdb
REMARK  254 active torsions:
REMARK  status: ('A' for Active; 'I' for Inactive)
REMARK    1  A    between atoms: _1  and  _3
REMARK    2  A    between atoms: _3  and  _4
REMARK    3  A    between atoms: _3  and  _6
REMARK    4  A    between atoms: _6  and  _7
REMARK    5  A    between atoms: _7  and  _8
REMARK    6  A    between atoms: _8  and  _9
REMARK    7  A    between atoms: _9  and  _10
REMARK    8  A    between atoms: _14  and  _16
REMARK    9  A    between atoms: _16  and  _17
REMARK   10  A    between atoms: _16  and  _19
REMARK   11  A    between atoms: _19  and  _20
REMARK   12  A    between atoms: _20  and  _21
REMARK   13  A    between atoms: _21  and  _22
REMARK   14  A    between atoms: _31  and  _33
REMARK   15  A    between atoms: _33  and  _34
REMARK   16  A    between atoms: _33  and  _36
REMARK   17  A    between atoms: _36  and  _37
REMARK   18  A    between atoms: _40  and  _42
REMARK   19  A    between atoms: _42  and  _43
REMARK   20  A    between atoms: _42  and  _45
REMARK   21  A    between atoms: _45  and  _46
REMARK   22  A    between atoms: _49  and  _51
REMARK   23  A    between atoms: _51  and  _52
REMARK   24  A    between atoms: _51  and  _54
REMARK   25  A    between atoms: _54  and  _55
REMARK   26  A    between atoms: _58  and  _60
REMARK   27  A    between atoms: _60  and  _61
REMARK   28  A    between atoms: _60  and  _63
REMARK   29  A    between atoms: _63  and  _64
REMARK   30  A    between atoms: _67  and  _69
REMARK   31  A    between atoms: _69  and  _70
REMARK   32  A    between atoms: _72  and  _74
REMARK   33  A    between atoms: _74  and  _75
REMARK   34  A    between atoms: _78  and  _80
REMARK   35  A    between atoms: _80  and  _81
REMARK   36  A    between atoms: _80  and  _83
REMARK   37  A    between atoms: _83  and  _84
REMARK   38  A    between atoms: _87  and  _89
REMARK   39  A    between atoms: _89  and  _90
REMARK   40  A    between atoms: _89  and  _92
REMARK   41  A    between atoms: _92  and  _93
REMARK   42  A    between atoms: _96  and  _98
REMARK   43  A    between atoms: _98  and  _99
REMARK   44  A    between atoms: _98  and  _101
REMARK   45  A    between atoms: _101  and  _102
REMARK   46  A    between atoms: _105  and  _107
REMARK   47  A    between atoms: _107  and  _108
REMARK   48  A    between atoms: _107  and  _110
REMARK   49  A    between atoms: _113  and  _115
REMARK   50  A    between atoms: _115  and  _116
REMARK   51  A    between atoms: _115  and  _118
REMARK   52  A    between atoms: _118  and  _119
REMARK   53  A    between atoms: _119  and  _120
REMARK   54  A    between atoms: _120  and  _121
REMARK   55  A    between atoms: _121  and  _122
REMARK   56  A    between atoms: _126  and  _128
REMARK   57  A    between atoms: _128  and  _129
REMARK   58  A    between atoms: _128  and  _131
REMARK   59  A    between atoms: _131  and  _132
REMARK   60  A    between atoms: _132  and  _133
REMARK   61  A    between atoms: _135  and  _137
REMARK   62  A    between atoms: _137  and  _138
REMARK   63  A    between atoms: _137  and  _140
REMARK   64  A    between atoms: _140  and  _141
REMARK   65  A    between atoms: _144  and  _146
REMARK   66  A    between atoms: _146  and  _147
REMARK   67  A    between atoms: _149  and  _151
REMARK   68  A    between atoms: _151  and  _152
REMARK   69  A    between atoms: _154  and  _156
REMARK   70  A    between atoms: _156  and  _157
REMARK   71  A    between atoms: _156  and  _159
REMARK   72  A    between atoms: _159  and  _160
REMARK   73  A    between atoms: _163  and  _165
REMARK   74  A    between atoms: _165  and  _166
REMARK   75  A    between atoms: _168  and  _170
REMARK   76  A    between atoms: _170  and  _171
REMARK   77  A    between atoms: _173  and  _175
REMARK   78  A    between atoms: _175  and  _176
REMARK   79  A    between atoms: _175  and  _178
REMARK   80  A    between atoms: _178  and  _179
REMARK   81  A    between atoms: _185  and  _187
REMARK   82  A    between atoms: _187  and  _188
REMARK   83  A    between atoms: _187  and  _190
REMARK   84  A    between atoms: _190  and  _191
REMARK   85  A    between atoms: _194  and  _196
REMARK   86  A    between atoms: _196  and  _197
REMARK   87  A    between atoms: _196  and  _199
REMARK   88  A    between atoms: _202  and  _204
REMARK   89  A    between atoms: _204  and  _205
REMARK   90  A    between atoms: _204  and  _207
REMARK   91  A    between atoms: _207  and  _208
REMARK   92  A    between atoms: _208  and  _209
REMARK   93  A    between atoms: _214  and  _216
REMARK   94  A    between atoms: _216  and  _217
REMARK   95  A    between atoms: _216  and  _219
REMARK   96  A    between atoms: _219  and  _220
REMARK   97  A    between atoms: _224  and  _225
REMARK   98  A    between atoms: _230  and  _232
REMARK   99  A    between atoms: _232  and  _233
REMARK  100  A    between atoms: _232  and  _235
REMARK  101  A    between atoms: _235  and  _236
REMARK  102  A    between atoms: _240  and  _241
REMARK  103  A    between atoms: _246  and  _248
REMARK  104  A    between atoms: _248  and  _249
REMARK  105  A    between atoms: _248  and  _251
REMARK  106  A    between atoms: _254  and  _256
REMARK  107  A    between atoms: _256  and  _257
REMARK  108  A    between atoms: _256  and  _259
REMARK  109  A    between atoms: _259  and  _260
REMARK  110  A    between atoms: _265  and  _267
REMARK  111  A    between atoms: _267  and  _268
REMARK  112  A    between atoms: _267  and  _270
REMARK  113  A    between atoms: _270  and  _271
REMARK  114  A    between atoms: _274  and  _276
REMARK  115  A    between atoms: _276  and  _277
REMARK  116  A    between atoms: _276  and  _279
REMARK  117  A    between atoms: _279  and  _280
REMARK  118  A    between atoms: _283  and  _285
REMARK  119  A    between atoms: _285  and  _286
REMARK  120  A    between atoms: _288  and  _290
REMARK  121  A    between atoms: _290  and  _291
REMARK  122  A    between atoms: _290  and  _293
REMARK  123  A    between atoms: _293  and  _294
REMARK  124  A    between atoms: _294  and  _295
REMARK  125  A    between atoms: _295  and  _296
REMARK  126  A    between atoms: _305  and  _307
REMARK  127  A    between atoms: _307  and  _308
REMARK  128  A    between atoms: _307  and  _310
REMARK  129  A    between atoms: _310  and  _311
REMARK  130  A    between atoms: _316  and  _318
REMARK  131  A    between atoms: _318  and  _319
REMARK  132  A    between atoms: _318  and  _321
REMARK  133  A    between atoms: _321  and  _322
REMARK  134  A    between atoms: _322  and  _323
REMARK  135  A    between atoms: _323  and  _324
REMARK  136  A    between atoms: _324  and  _325
REMARK  137  A    between atoms: _329  and  _331
REMARK  138  A    between atoms: _331  and  _332
REMARK  139  A    between atoms: _331  and  _334
REMARK  140  A    between atoms: _334  and  _335
REMARK  141  A    between atoms: _335  and  _336
REMARK  142  A    between atoms: _336  and  _337
REMARK  143  A    between atoms: _346  and  _348
REMARK  144  A    between atoms: _348  and  _349
REMARK  145  A    between atoms: _348  and  _351
REMARK  146  A    between atoms: _351  and  _352
REMARK  147  A    between atoms: _355  and  _357
REMARK  148  A    between atoms: _357  and  _358
REMARK  149  A    between atoms: _357  and  _360
REMARK  150  A    between atoms: _360  and  _361
REMARK  151  A    between atoms: _364  and  _366
REMARK  152  A    between atoms: _366  and  _367
REMARK  153  A    between atoms: _366  and  _369
REMARK  154  A    between atoms: _369  and  _370
REMARK  155  A    between atoms: _373  and  _375
REMARK  156  A    between atoms: _375  and  _376
REMARK  157  A    between atoms: _375  and  _378
REMARK  158  A    between atoms: _378  and  _379
REMARK  159  A    between atoms: _382  and  _384
REMARK  160  A    between atoms: _384  and  _385
REMARK  161  A    between atoms: _387  and  _389
REMARK  162  A    between atoms: _389  and  _390
REMARK  163  A    between atoms: _393  and  _395
REMARK  164  A    between atoms: _395  and  _396
REMARK  165  A    between atoms: _395  and  _398
REMARK  166  A    between atoms: _398  and  _399
REMARK  167  A    between atoms: _402  and  _404
REMARK  168  A    between atoms: _404  and  _405
REMARK  169  A    between atoms: _404  and  _407
REMARK  170  A    between atoms: _407  and  _408
REMARK  171  A    between atoms: _411  and  _413
REMARK  172  A    between atoms: _413  and  _414
REMARK  173  A    between atoms: _413  and  _416
REMARK  174  A    between atoms: _416  and  _417
REMARK  175  A    between atoms: _420  and  _422
REMARK  176  A    between atoms: _422  and  _423
REMARK  177  A    between atoms: _422  and  _425
REMARK  178  A    between atoms: _428  and  _430
REMARK  179  A    between atoms: _430  and  _431
REMARK  180  A    between atoms: _430  and  _433
REMARK  181  A    between atoms: _433  and  _434
REMARK  182  A    between atoms: _434  and  _435
REMARK  183  A    between atoms: _435  and  _436
REMARK  184  A    between atoms: _436  and  _437
REMARK  185  A    between atoms: _441  and  _443
REMARK  186  A    between atoms: _443  and  _444
REMARK  187  A    between atoms: _443  and  _446
REMARK  188  A    between atoms: _446  and  _447
REMARK  189  A    between atoms: _447  and  _448
REMARK  190  A    between atoms: _450  and  _452
REMARK  191  A    between atoms: _452  and  _453
REMARK  192  A    between atoms: _452  and  _455
REMARK  193  A    between atoms: _455  and  _456
REMARK  194  A    between atoms: _459  and  _461
REMARK  195  A    between atoms: _461  and  _462
REMARK  196  A    between atoms: _464  and  _466
REMARK  197  A    between atoms: _466  and  _467
REMARK  198  A    between atoms: _469  and  _471
REMARK  199  A    between atoms: _471  and  _472
REMARK  200  A    between atoms: _471  and  _474
REMARK  201  A    between atoms: _474  and  _475
REMARK  202  A    between atoms: _478  and  _480
REMARK  203  A    between atoms: _480  and  _481
REMARK  204  A    between atoms: _483  and  _485
REMARK  205  A    between atoms: _485  and  _486
REMARK  206  A    between atoms: _488  and  _490
REMARK  207  A    between atoms: _490  and  _491
REMARK  208  A    between atoms: _490  and  _493
REMARK  209  A    between atoms: _493  and  _494
REMARK  210  A    between atoms: _500  and  _502
REMARK  211  A    between atoms: _502  and  _503
REMARK  212  A    between atoms: _502  and  _505
REMARK  213  A    between atoms: _505  and  _506
REMARK  214  A    between atoms: _509  and  _511
REMARK  215  A    between atoms: _511  and  _512
REMARK  216  A    between atoms: _511  and  _514
REMARK  217  A    between atoms: _517  and  _519
REMARK  218  A    between atoms: _519  and  _520
REMARK  219  A    between atoms: _519  and  _522
REMARK  220  A    between atoms: _522  and  _523
REMARK  221  A    between atoms: _523  and  _524
REMARK  222  A    between atoms: _529  and  _531
REMARK  223  A    between atoms: _531  and  _532
REMARK  224  A    between atoms: _531  and  _534
REMARK  225  A    between atoms: _534  and  _535
REMARK  226  A    between atoms: _539  and  _540
REMARK  227  A    between atoms: _545  and  _547
REMARK  228  A    between atoms: _547  and  _548
REMARK  229  A    between atoms: _547  and  _550
REMARK  230  A    between atoms: _550  and  _551
REMARK  231  A    between atoms: _555  and  _556
REMARK  232  A    between atoms: _561  and  _563
REMARK  233  A    between atoms: _563  and  _564
REMARK  234  A    between atoms: _563  and  _566
REMARK  235  A    between atoms: _569  and  _571
REMARK  236  A    between atoms: _571  and  _572
REMARK  237  A    between atoms: _571  and  _574
REMARK  238  A    between atoms: _574  and  _575
REMARK  239  A    between atoms: _580  and  _582
REMARK  240  A    between atoms: _582  and  _583
REMARK  241  A    between atoms: _582  and  _585
REMARK  242  A    between atoms: _585  and  _586
REMARK  243  A    between atoms: _589  and  _591
REMARK  244  A    between atoms: _591  and  _592
REMARK  245  A    between atoms: _591  and  _594
REMARK  246  A    between atoms: _594  and  _595
REMARK  247  A    between atoms: _598  and  _600
REMARK  248  A    between atoms: _600  and  _601
REMARK  249  A    between atoms: _603  and  _605
REMARK  250  A    between atoms: _605  and  _606
REMARK  251  A    between atoms: _605  and  _608
REMARK  252  A    between atoms: _608  and  _609
REMARK  253  A    between atoms: _609  and  _610
REMARK  254  A    between atoms: _610  and  _611
REMARK                            x       y       z     vdW  Elec       q    Type
REMARK                         _______ _______ _______ _____ _____    ______ ____
ROOT
ATOM      1  C   GLY A   5      -3.962 -12.113  14.218  0.00  0.00    +0.243 C 
ATOM      2  O   GLY A   5      -2.788 -11.737  14.300  0.00  0.00    -0.273 OA
ATOM      3  N   ILE A   6      -4.621 -12.187  13.072  0.00  0.00    -0.297 N 
ATOM      4  H   ILE A   6      -5.587 -12.573  13.061  0.00  0.00    +0.150 HD
ENDROOT
BRANCH   3   5
ATOM      5  CA  ILE A   6      -4.019 -11.740  11.836  0.00  0.00    +0.149 C 
BRANCH   5   6
ATOM      6  C   ILE A   6      -3.879 -10.211  11.985  0.00  0.00    +0.241 C 
ATOM      7  O   ILE A   6      -4.738  -9.562  12.578  0.00  0.00    -0.273 OA
ATOM      8  N   GLY A   7      -2.775  -9.647  11.527  0.00  0.00    -0.295 N 
ATOM      9  H   GLY A   7      -2.029 -10.242  11.114  0.00  0.00    +0.150 HD
BRANCH   8  10
ATOM     10  CA  GLY A   7      -2.587  -8.191  11.593  0.00  0.00    +0.176 C 
BRANCH  10  11
ATOM     11  C   GLY A   7      -2.299  -7.519  12.938  0.00  0.00    +0.243 C 
ATOM     12  N   GLY A   8      -2.263  -8.285  14.025  0.00  0.00    -0.295 N 
ATOM     13  H   GLY A   8      -2.541  -9.285  13.960  0.00  0.00    +0.150 HD
ATOM     14  O   GLY A   7      -2.107  -6.300  12.988  0.00  0.00    -0.273 OA
BRANCH  12  15
ATOM     15  CA  GLY A   8      -1.837  -7.734  15.309  0.00  0.00    +0.176 C 
BRANCH  15  16
ATOM     16  C   GLY A   8      -2.543  -8.178  16.580  0.00  0.00    +0.243 C 
ATOM     17  N   PHE A   9      -2.474  -7.320  17.586  0.00  0.00    -0.297 N 
ATOM     18  H   PHE A   9      -2.003  -6.404  17.443  0.00  0.00    +0.150 HD
ATOM     19  O   GLY A   8      -3.154  -9.249  16.639  0.00  0.00    -0.273 OA
BRANCH  17  20
ATOM     20  CA  PHE A   9      -3.039  -7.631  18.878  0.00  0.00    +0.153 C 
BRANCH  20  21
ATOM     21  C   PHE A   9      -4.143  -6.657  19.258  0.00  0.00    +0.241 C 
ATOM     22  N   ILE A  10      -4.986  -7.093  20.180  0.00  0.00    -0.298 N 
ATOM     23  H   ILE A  10      -4.981  -8.099  20.442  0.00  0.00    +0.150 HD
ATOM     24  O   PHE A   9      -4.239  -5.549  18.725  0.00  0.00    -0.273 OA
BRANCH  22  25
ATOM     25  CA  ILE A  10      -5.923  -6.186  20.836  0.00  0.00    +0.137 C 
BRANCH  25  26
ATOM     26  C   ILE A  10      -5.844  -6.409  22.330  0.00  0.00    +0.227 C 
ATOM     27  O   ILE A  10      -5.526  -7.507  22.804  0.00  0.00    -0.286 OA
ENDBRANCH  25  26
BRANCH  25  28
ATOM     28  CB  ILE A  10      -7.412  -6.289  20.337  0.00  0.00    +0.026 C 
ATOM     29  CG2 ILE A  10      -7.554  -5.832  18.895  0.00  0.00    +0.002 C 
BRANCH  28  30
ATOM     30  CG1 ILE A  10      -7.996  -7.684  20.553  0.00  0.00    +0.002 C 
ATOM     31  CD1 ILE A  10      -9.516  -7.723  20.642  0.00  0.00    +0.000 C 
ENDBRANCH  28  30
ENDBRANCH  25  28
ENDBRANCH  22  25
ENDBRANCH  20  21
BRANCH  20  32
ATOM     32  CB  PHE A   9      -1.944  -7.610  19.936  0.00  0.00    +0.055 C 
BRANCH  32  33
ATOM     33  CG  PHE A   9      -1.475  -6.236  20.288  0.00  0.00    -0.020 A 
ATOM     34  CD2 PHE A   9      -1.969  -5.592  21.412  0.00  0.00    -0.004 A 
ATOM     35  CE2 PHE A   9      -1.539  -4.323  21.740  0.00  0.00    -0.000 A 
ATOM     36  CZ  PHE A   9      -0.605  -3.685  20.945  0.00  0.00    -0.000 A 
ATOM     37  CE1 PHE A   9      -0.105  -4.318  19.820  0.00  0.00    -0.000 A 
ATOM     38  CD1 PHE A   9      -0.541  -5.583  19.497  0.00  0.00    -0.004 A 
ENDBRANCH  32  33
ENDBRANCH  20  32
ENDBRANCH  17  20
ENDBRANCH  15  16
ENDBRANCH  12  15
ENDBRANCH  10  11
ENDBRANCH   8  10
ENDBRANCH   5   6
BRANCH   5  39
ATOM     39  CB  ILE A   6      -4.907 -12.185  10.630  0.00  0.00    +0.027 C 
ATOM     40  CG2 ILE A   6      -5.537 -11.030   9.955  0.00  0.00    +0.002 C 
BRANCH  39  41
ATOM     41  CG1 ILE A   6      -4.098 -12.976   9.607  0.00  0.00    +0.002 C 
ATOM     42  CD1 ILE A   6      -4.174 -14.457   9.758  0.00  0.00    +0.000 C 
ENDBRANCH  39  41
ENDBRANCH   5  39
ENDBRANCH   3   5
BRANCH   1  43
ATOM     43  CA  GLY A   5      -4.723 -12.531  15.445  0.00  0.00    +0.176 C 
BRANCH  43  46
ATOM     44  C   GLY A   4      -4.102 -12.542  17.779  0.00  0.00    +0.243 C 
ATOM     45  O   GLY A   4      -4.691 -13.605  18.001  0.00  0.00    -0.273 OA
ATOM     46  N   GLY A   5      -4.113 -11.929  16.607  0.00  0.00    -0.295 N 
ATOM     47  H   GLY A   5      -3.672 -10.991  16.520  0.00  0.00    +0.150 HD
BRANCH  44  48
ATOM     48  CA  GLY A   4      -3.315 -11.849  18.851  0.00  0.00    +0.176 C 
BRANCH  48  51
ATOM     49  C   ILE A   3      -4.473 -11.138  20.829  0.00  0.00    +0.241 C 
ATOM     50  O   ILE A   3      -4.606 -10.014  20.379  0.00  0.00    -0.273 OA
ATOM     51  N   GLY A   4      -3.862 -12.099  20.163  0.00  0.00    -0.295 N 
ATOM     52  H   GLY A   4      -3.774 -13.045  20.587  0.00  0.00    +0.150 HD
BRANCH  49  53
ATOM     53  CA  ILE A   3      -5.033 -11.502  22.178  0.00  0.00    +0.149 C 
BRANCH  53  56
ATOM     54  C   MET A   2      -4.143 -10.516  24.203  0.00  0.00    +0.241 C 
ATOM     55  O   MET A   2      -3.673 -11.596  24.559  0.00  0.00    -0.273 OA
ATOM     56  N   ILE A   3      -4.909 -10.393  23.127  0.00  0.00    -0.297 N 
ATOM     57  H   ILE A   3      -5.424  -9.506  22.956  0.00  0.00    +0.150 HD
BRANCH  54  58
ATOM     58  CA  MET A   2      -3.863  -9.265  25.021  0.00  0.00    +0.149 C 
BRANCH  58  61
ATOM     59  C   LYS A   1      -5.002  -8.844  27.133  0.00  0.00    +0.238 C 
ATOM     60  O   LYS A   1      -5.613  -7.876  26.676  0.00  0.00    -0.274 OA
ATOM     61  N   MET A   2      -4.128  -9.552  26.423  0.00  0.00    -0.297 N 
ATOM     62  H   MET A   2      -3.619 -10.334  26.883  0.00  0.00    +0.150 HD
BRANCH  59  63
ATOM     63  CA  LYS A   1      -5.205  -9.281  28.568  0.00  0.00    +0.145 C 
BRANCH  63  64
ATOM     64  N   LYS A   1      -5.690  -8.180  29.381  0.00  0.00    -0.238 NA
ATOM     65  H   LYS A   1      -6.278  -7.441  28.945  0.00  0.00    +0.142 HD
ENDBRANCH  63  64
BRANCH  63  66
ATOM     66  CB  LYS A   1      -6.176 -10.465  28.634  0.00  0.00    +0.026 C 
BRANCH  66  67
ATOM     67  CG  LYS A   1      -5.467 -11.799  28.641  0.00  0.00    -0.000 C 
BRANCH  67  68
ATOM     68  CD  LYS A   1      -6.074 -12.822  27.666  0.00  0.00    -0.024 C 
BRANCH  68  69
ATOM     69  CE  LYS A   1      -5.011 -13.851  27.229  0.00  0.00    -0.086 C 
BRANCH  69  70
ATOM     70  NZ  LYS A   1      -5.559 -15.155  26.773  0.00  0.00    +0.380 N 
ATOM     71  HZ1 LYS A   1      -6.101 -15.591  27.546  0.00  0.00    -0.089 HD
ATOM     72  HZ2 LYS A   1      -4.776 -15.782  26.500  0.00  0.00    -0.089 HD
ATOM     73  HZ3 LYS A   1      -6.183 -15.001  25.955  0.00  0.00    -0.089 HD
ENDBRANCH  69  70
ENDBRANCH  68  69
ENDBRANCH  67  68
ENDBRANCH  66  67
ENDBRANCH  63  66
ENDBRANCH  59  63
ENDBRANCH  58  61
BRANCH  58  74
ATOM     74  CB  MET A   2      -2.401  -8.825  24.829  0.00  0.00    +0.041 C 
BRANCH  74  75
ATOM     75  CG  MET A   2      -1.954  -7.634  25.678  0.00  0.00    +0.060 C 
BRANCH  75  76
ATOM     76  SD  MET A   2      -1.911  -6.089  24.753  0.00  0.00    -0.139 S 
ATOM     77  CE  MET A   2      -0.837  -5.040  25.753  0.00  0.00    +0.069 C 
ENDBRANCH  75  76
ENDBRANCH  74  75
ENDBRANCH  58  74
ENDBRANCH  54  58
ENDBRANCH  53  56
BRANCH  53  78
ATOM     78  CB  ILE A   3      -6.501 -12.035  22.015  0.00  0.00    +0.027 C 
ATOM     79  CG2 ILE A   3      -6.875 -12.963  23.179  0.00  0.00    +0.002 C 
BRANCH  78  80
ATOM     80  CG1 ILE A   3      -7.488 -10.881  21.849  0.00  0.00    +0.002 C 
ATOM     81  CD1 ILE A   3      -8.841 -11.274  21.279  0.00  0.00    +0.000 C 
ENDBRANCH  78  80
ENDBRANCH  53  78
ENDBRANCH  49  53
ENDBRANCH  48  51
ENDBRANCH  44  48
ENDBRANCH  43  46
ENDBRANCH   1  43
TORSDOF 36
REMARK  Name = ../refined-set-2016/2p3c/2p3c_pocket.pdb
REMARK  254 active torsions:
REMARK  status: ('A' for Active; 'I' for Inactive)
REMARK    1  A    between atoms: _1  and  _3
REMARK    2  A    between atoms: _3  and  _4
REMARK    3  A    between atoms: _3  and  _6
REMARK    4  A    between atoms: _6  and  _7
REMARK    5  A    between atoms: _7  and  _8
REMARK    6  A    between atoms: _8  and  _9
REMARK    7  A    between atoms: _9  and  _10
REMARK    8  A    between atoms: _14  and  _16
REMARK    9  A    between atoms: _16  and  _17
REMARK   10  A    between atoms: _16  and  _19
REMARK   11  A    between atoms: _19  and  _20
REMARK   12  A    between atoms: _20  and  _21
REMARK   13  A    between atoms: _21  and  _22
REMARK   14  A    between atoms: _31  and  _33
REMARK   15  A    between atoms: _33  and  _34
REMARK   16  A    between atoms: _33  and  _36
REMARK   17  A    between atoms: _36  and  _37
REMARK   18  A    between atoms: _40  and  _42
REMARK   19  A    between atoms: _42  and  _43
REMARK   20  A    between atoms: _42  and  _45
REMARK   21  A    between atoms: _45  and  _46
REMARK   22  A    between atoms: _49  and  _51
REMARK   23  A    between atoms: _51  and  _52
REMARK   24  A    between atoms: _51  and  _54
REMARK   25  A    between atoms: _54  and  _55
REMARK   26  A    between atoms: _58  and  _60
REMARK   27  A    between atoms: _60  and  _61
REMARK   28  A    between atoms: _60  and  _63
REMARK   29  A    between atoms: _63  and  _64
REMARK   30  A    between atoms: _67  and  _69
REMARK   31  A    between atoms: _69  and  _70
REMARK   32  A    between atoms: _72  and  _74
REMARK   33  A    between atoms: _74  and  _75
REMARK   34  A    between atoms: _78  and  _80
REMARK   35  A    between atoms: _80  and  _81
REMARK   36  A    between atoms: _80  and  _83
REMARK   37  A    between atoms: _83  and  _84
REMARK   38  A    between atoms: _87  and  _89
REMARK   39  A    between atoms: _89  and  _90
REMARK   40  A    between atoms: _89  and  _92
REMARK   41  A    between atoms: _92  and  _93
REMARK   42  A    between atoms: _96  and  _98
REMARK   43  A    between atoms: _98  and  _99
REMARK   44  A    between atoms: _98  and  _101
REMARK   45  A    between atoms: _101  and  _102
REMARK   46  A    between atoms: _105  and  _107
REMARK   47  A    between atoms: _107  and  _108
REMARK   48  A    between atoms: _107  and  _110
REMARK   49  A    between atoms: _113  and  _115
REMARK   50  A    between atoms: _115  and  _116
REMARK   51  A    between atoms: _115  and  _118
REMARK   52  A    between atoms: _118  and  _119
REMARK   53  A    between atoms: _119  and  _120
REMARK   54  A    between atoms: _120  and  _121
REMARK   55  A    between atoms: _121  and  _122
REMARK   56  A    between atoms: _126  and  _128
REMARK   57  A    between atoms: _128  and  _129
REMARK   58  A    between atoms: _128  and  _131
REMARK   59  A    between atoms: _131  and  _132
REMARK   60  A    between atoms: _132  and  _133
REMARK   61  A    between atoms: _135  and  _137
REMARK   62  A    between atoms: _137  and  _138
REMARK   63  A    between atoms: _137  and  _140
REMARK   64  A    between atoms: _140  and  _141
REMARK   65  A    between atoms: _144  and  _146
REMARK   66  A    between atoms: _146  and  _147
REMARK   67  A    between atoms: _149  and  _151
REMARK   68  A    between atoms: _151  and  _152
REMARK   69  A    between atoms: _154  and  _156
REMARK   70  A    between atoms: _156  and  _157
REMARK   71  A    between atoms: _156  and  _159
REMARK   72  A    between atoms: _159  and  _160
REMARK   73  A    between atoms: _163  and  _165
REMARK   74  A    between atoms: _165  and  _166
REMARK   75  A    between atoms: _168  and  _170
REMARK   76  A    between atoms: _170  and  _171
REMARK   77  A    between atoms: _173  and  _175
REMARK   78  A    between atoms: _175  and  _176
REMARK   79  A    between atoms: _175  and  _178
REMARK   80  A    between atoms: _178  and  _179
REMARK   81  A    between atoms: _185  and  _187
REMARK   82  A    between atoms: _187  and  _188
REMARK   83  A    between atoms: _187  and  _190
REMARK   84  A    between atoms: _190  and  _191
REMARK   85  A    between atoms: _194  and  _196
REMARK   86  A    between atoms: _196  and  _197
REMARK   87  A    between atoms: _196  and  _199
REMARK   88  A    between atoms: _202  and  _204
REMARK   89  A    between atoms: _204  and  _205
REMARK   90  A    between atoms: _204  and  _207
REMARK   91  A    between atoms: _207  and  _208
REMARK   92  A    between atoms: _208  and  _209
REMARK   93  A    between atoms: _214  and  _216
REMARK   94  A    between atoms: _216  and  _217
REMARK   95  A    between atoms: _216  and  _219
REMARK   96  A    between atoms: _219  and  _220
REMARK   97  A    between atoms: _224  and  _225
REMARK   98  A    between atoms: _230  and  _232
REMARK   99  A    between atoms: _232  and  _233
REMARK  100  A    between atoms: _232  and  _235
REMARK  101  A    between atoms: _235  and  _236
REMARK  102  A    between atoms: _240  and  _241
REMARK  103  A    between atoms: _246  and  _248
REMARK  104  A    between atoms: _248  and  _249
REMARK  105  A    between atoms: _248  and  _251
REMARK  106  A    between atoms: _254  and  _256
REMARK  107  A    between atoms: _256  and  _257
REMARK  108  A    between atoms: _256  and  _259
REMARK  109  A    between atoms: _259  and  _260
REMARK  110  A    between atoms: _265  and  _267
REMARK  111  A    between atoms: _267  and  _268
REMARK  112  A    between atoms: _267  and  _270
REMARK  113  A    between atoms: _270  and  _271
REMARK  114  A    between atoms: _274  and  _276
REMARK  115  A    between atoms: _276  and  _277
REMARK  116  A    between atoms: _276  and  _279
REMARK  117  A    between atoms: _279  and  _280
REMARK  118  A    between atoms: _283  and  _285
REMARK  119  A    between atoms: _285  and  _286
REMARK  120  A    between atoms: _288  and  _290
REMARK  121  A    between atoms: _290  and  _291
REMARK  122  A    between atoms: _290  and  _293
REMARK  123  A    between atoms: _293  and  _294
REMARK  124  A    between atoms: _294  and  _295
REMARK  125  A    between atoms: _295  and  _296
REMARK  126  A    between atoms: _305  and  _307
REMARK  127  A    between atoms: _307  and  _308
REMARK  128  A    between atoms: _307  and  _310
REMARK  129  A    between atoms: _310  and  _311
REMARK  130  A    between atoms: _316  and  _318
REMARK  131  A    between atoms: _318  and  _319
REMARK  132  A    between atoms: _318  and  _321
REMARK  133  A    between atoms: _321  and  _322
REMARK  134  A    between atoms: _322  and  _323
REMARK  135  A    between atoms: _323  and  _324
REMARK  136  A    between atoms: _324  and  _325
REMARK  137  A    between atoms: _329  and  _331
REMARK  138  A    between atoms: _331  and  _332
REMARK  139  A    between atoms: _331  and  _334
REMARK  140  A    between atoms: _334  and  _335
REMARK  141  A    between atoms: _335  and  _336
REMARK  142  A    between atoms: _336  and  _337
REMARK  143  A    between atoms: _346  and  _348
REMARK  144  A    between atoms: _348  and  _349
REMARK  145  A    between atoms: _348  and  _351
REMARK  146  A    between atoms: _351  and  _352
REMARK  147  A    between atoms: _355  and  _357
REMARK  148  A    between atoms: _357  and  _358
REMARK  149  A    between atoms: _357  and  _360
REMARK  150  A    between atoms: _360  and  _361
REMARK  151  A    between atoms: _364  and  _366
REMARK  152  A    between atoms: _366  and  _367
REMARK  153  A    between atoms: _366  and  _369
REMARK  154  A    between atoms: _369  and  _370
REMARK  155  A    between atoms: _373  and  _375
REMARK  156  A    between atoms: _375  and  _376
REMARK  157  A    between atoms: _375  and  _378
REMARK  158  A    between atoms: _378  and  _379
REMARK  159  A    between atoms: _382  and  _384
REMARK  160  A    between atoms: _384  and  _385
REMARK  161  A    between atoms: _387  and  _389
REMARK  162  A    between atoms: _389  and  _390
REMARK  163  A    between atoms: _393  and  _395
REMARK  164  A    between atoms: _395  and  _396
REMARK  165  A    between atoms: _395  and  _398
REMARK  166  A    between atoms: _398  and  _399
REMARK  167  A    between atoms: _402  and  _404
REMARK  168  A    between atoms: _404  and  _405
REMARK  169  A    between atoms: _404  and  _407
REMARK  170  A    between atoms: _407  and  _408
REMARK  171  A    between atoms: _411  and  _413
REMARK  172  A    between atoms: _413  and  _414
REMARK  173  A    between atoms: _413  and  _416
REMARK  174  A    between atoms: _416  and  _417
REMARK  175  A    between atoms: _420  and  _422
REMARK  176  A    between atoms: _422  and  _423
REMARK  177  A    between atoms: _422  and  _425
REMARK  178  A    between atoms: _428  and  _430
REMARK  179  A    between atoms: _430  and  _431
REMARK  180  A    between atoms: _430  and  _433
REMARK  181  A    between atoms: _433  and  _434
REMARK  182  A    between atoms: _434  and  _435
REMARK  183  A    between atoms: _435  and  _436
REMARK  184  A    between atoms: _436  and  _437
REMARK  185  A    between atoms: _441  and  _443
REMARK  186  A    between atoms: _443  and  _444
REMARK  187  A    between atoms: _443  and  _446
REMARK  188  A    between atoms: _446  and  _447
REMARK  189  A    between atoms: _447  and  _448
REMARK  190  A    between atoms: _450  and  _452
REMARK  191  A    between atoms: _452  and  _453
REMARK  192  A    between atoms: _452  and  _455
REMARK  193  A    between atoms: _455  and  _456
REMARK  194  A    between atoms: _459  and  _461
REMARK  195  A    between atoms: _461  and  _462
REMARK  196  A    between atoms: _464  and  _466
REMARK  197  A    between atoms: _466  and  _467
REMARK  198  A    between atoms: _469  and  _471
REMARK  199  A    between atoms: _471  and  _472
REMARK  200  A    between atoms: _471  and  _474
REMARK  201  A    between atoms: _474  and  _475
REMARK  202  A    between atoms: _478  and  _480
REMARK  203  A    between atoms: _480  and  _481
REMARK  204  A    between atoms: _483  and  _485
REMARK  205  A    between atoms: _485  and  _486
REMARK  206  A    between atoms: _488  and  _490
REMARK  207  A    between atoms: _490  and  _491
REMARK  208  A    between atoms: _490  and  _493
REMARK  209  A    between atoms: _493  and  _494
REMARK  210  A    between atoms: _500  and  _502
REMARK  211  A    between atoms: _502  and  _503
REMARK  212  A    between atoms: _502  and  _505
REMARK  213  A    between atoms: _505  and  _506
REMARK  214  A    between atoms: _509  and  _511
REMARK  215  A    between atoms: _511  and  _512
REMARK  216  A    between atoms: _511  and  _514
REMARK  217  A    between atoms: _517  and  _519
REMARK  218  A    between atoms: _519  and  _520
REMARK  219  A    between atoms: _519  and  _522
REMARK  220  A    between atoms: _522  and  _523
REMARK  221  A    between atoms: _523  and  _524
REMARK  222  A    between atoms: _529  and  _531
REMARK  223  A    between atoms: _531  and  _532
REMARK  224  A    between atoms: _531  and  _534
REMARK  225  A    between atoms: _534  and  _535
REMARK  226  A    between atoms: _539  and  _540
REMARK  227  A    between atoms: _545  and  _547
REMARK  228  A    between atoms: _547  and  _548
REMARK  229  A    between atoms: _547  and  _550
REMARK  230  A    between atoms: _550  and  _551
REMARK  231  A    between atoms: _555  and  _556
REMARK  232  A    between atoms: _561  and  _563
REMARK  233  A    between atoms: _563  and  _564
REMARK  234  A    between atoms: _563  and  _566
REMARK  235  A    between atoms: _569  and  _571
REMARK  236  A    between atoms: _571  and  _572
REMARK  237  A    between atoms: _571  and  _574
REMARK  238  A    between atoms: _574  and  _575
REMARK  239  A    between atoms: _580  and  _582
REMARK  240  A    between atoms: _582  and  _583
REMARK  241  A    between atoms: _582  and  _585
REMARK  242  A    between atoms: _585  and  _586
REMARK  243  A    between atoms: _589  and  _591
REMARK  244  A    between atoms: _591  and  _592
REMARK  245  A    between atoms: _591  and  _594
REMARK  246  A    between atoms: _594  and  _595
REMARK  247  A    between atoms: _598  and  _600
REMARK  248  A    between atoms: _600  and  _601
REMARK  249  A    between atoms: _603  and  _605
REMARK  250  A    between atoms: _605  and  _606
REMARK  251  A    between atoms: _605  and  _608
REMARK  252  A    between atoms: _608  and  _609
REMARK  253  A    between atoms: _609  and  _610
REMARK  254  A    between atoms: _610  and  _611
REMARK                            x       y       z     vdW  Elec       q    Type
REMARK                         _______ _______ _______ _____ _____    ______ ____
ROOT
ATOM      1  CA  VAL A   1      -9.159  -7.217  26.081  0.00  0.00    +0.133 C 
ENDROOT
BRANCH   1   2
ATOM      2  CB  VAL A   1      -9.503  -8.637  25.582  0.00  0.00    +0.023 C 
ATOM      3  CG2 VAL A   1      -8.464  -9.654  26.046  0.00  0.00    +0.002 C 
ATOM      4  CG1 VAL A   1      -9.663  -8.661  24.067  0.00  0.00    +0.002 C 
ENDBRANCH   1   2
BRANCH   1   5
ATOM      5  N   VAL A   1      -7.837  -6.786  25.676  0.00  0.00    -0.239 NA
ATOM      6  H   VAL A   1      -7.001  -7.206  26.131  0.00  0.00    +0.142 HD
ENDBRANCH   1   5
BRANCH   1   7
ATOM      7  C   VAL A   1      -9.268  -7.171  27.593  0.00  0.00    +0.224 C 
ATOM      8  O   VAL A   1      -8.267  -7.097  28.295  0.00  0.00    -0.287 OA
ENDBRANCH   1   7
TORSDOF 3
REMARK  Name = ../refined-set-2016/2p3c/2p3c_pocket.pdb
REMARK  254 active torsions:
REMARK  status: ('A' for Active; 'I' for Inactive)
REMARK    1  A    between atoms: _1  and  _3
REMARK    2  A    between atoms: _3  and  _4
REMARK    3  A    between atoms: _3  and  _6
REMARK    4  A    between atoms: _6  and  _7
REMARK    5  A    between atoms: _7  and  _8
REMARK    6  A    between atoms: _8  and  _9
REMARK    7  A    between atoms: _9  and  _10
REMARK    8  A    between atoms: _14  and  _16
REMARK    9  A    between atoms: _16  and  _17
REMARK   10  A    between atoms: _16  and  _19
REMARK   11  A    between atoms: _19  and  _20
REMARK   12  A    between atoms: _20  and  _21
REMARK   13  A    between atoms: _21  and  _22
REMARK   14  A    between atoms: _31  and  _33
REMARK   15  A    between atoms: _33  and  _34
REMARK   16  A    between atoms: _33  and  _36
REMARK   17  A    between atoms: _36  and  _37
REMARK   18  A    between atoms: _40  and  _42
REMARK   19  A    between atoms: _42  and  _43
REMARK   20  A    between atoms: _42  and  _45
REMARK   21  A    between atoms: _45  and  _46
REMARK   22  A    between atoms: _49  and  _51
REMARK   23  A    between atoms: _51  and  _52
REMARK   24  A    between atoms: _51  and  _54
REMARK   25  A    between atoms: _54  and  _55
REMARK   26  A    between atoms: _58  and  _60
REMARK   27  A    between atoms: _60  and  _61
REMARK   28  A    between atoms: _60  and  _63
REMARK   29  A    between atoms: _63  and  _64
REMARK   30  A    between atoms: _67  and  _69
REMARK   31  A    between atoms: _69  and  _70
REMARK   32  A    between atoms: _72  and  _74
REMARK   33  A    between atoms: _74  and  _75
REMARK   34  A    between atoms: _78  and  _80
REMARK   35  A    between atoms: _80  and  _81
REMARK   36  A    between atoms: _80  and  _83
REMARK   37  A    between atoms: _83  and  _84
REMARK   38  A    between atoms: _87  and  _89
REMARK   39  A    between atoms: _89  and  _90
REMARK   40  A    between atoms: _89  and  _92
REMARK   41  A    between atoms: _92  and  _93
REMARK   42  A    between atoms: _96  and  _98
REMARK   43  A    between atoms: _98  and  _99
REMARK   44  A    between atoms: _98  and  _101
REMARK   45  A    between atoms: _101  and  _102
REMARK   46  A    between atoms: _105  and  _107
REMARK   47  A    between atoms: _107  and  _108
REMARK   48  A    between atoms: _107  and  _110
REMARK   49  A    between atoms: _113  and  _115
REMARK   50  A    between atoms: _115  and  _116
REMARK   51  A    between atoms: _115  and  _118
REMARK   52  A    between atoms: _118  and  _119
REMARK   53  A    between atoms: _119  and  _120
REMARK   54  A    between atoms: _120  and  _121
REMARK   55  A    between atoms: _121  and  _122
REMARK   56  A    between atoms: _126  and  _128
REMARK   57  A    between atoms: _128  and  _129
REMARK   58  A    between atoms: _128  and  _131
REMARK   59  A    between atoms: _131  and  _132
REMARK   60  A    between atoms: _132  and  _133
REMARK   61  A    between atoms: _135  and  _137
REMARK   62  A    between atoms: _137  and  _138
REMARK   63  A    between atoms: _137  and  _140
REMARK   64  A    between atoms: _140  and  _141
REMARK   65  A    between atoms: _144  and  _146
REMARK   66  A    between atoms: _146  and  _147
REMARK   67  A    between atoms: _149  and  _151
REMARK   68  A    between atoms: _151  and  _152
REMARK   69  A    between atoms: _154  and  _156
REMARK   70  A    between atoms: _156  and  _157
REMARK   71  A    between atoms: _156  and  _159
REMARK   72  A    between atoms: _159  and  _160
REMARK   73  A    between atoms: _163  and  _165
REMARK   74  A    between atoms: _165  and  _166
REMARK   75  A    between atoms: _168  and  _170
REMARK   76  A    between atoms: _170  and  _171
REMARK   77  A    between atoms: _173  and  _175
REMARK   78  A    between atoms: _175  and  _176
REMARK   79  A    between atoms: _175  and  _178
REMARK   80  A    between atoms: _178  and  _179
REMARK   81  A    between atoms: _185  and  _187
REMARK   82  A    between atoms: _187  and  _188
REMARK   83  A    between atoms: _187  and  _190
REMARK   84  A    between atoms: _190  and  _191
REMARK   85  A    between atoms: _194  and  _196
REMARK   86  A    between atoms: _196  and  _197
REMARK   87  A    between atoms: _196  and  _199
REMARK   88  A    between atoms: _202  and  _204
REMARK   89  A    between atoms: _204  and  _205
REMARK   90  A    between atoms: _204  and  _207
REMARK   91  A    between atoms: _207  and  _208
REMARK   92  A    between atoms: _208  and  _209
REMARK   93  A    between atoms: _214  and  _216
REMARK   94  A    between atoms: _216  and  _217
REMARK   95  A    between atoms: _216  and  _219
REMARK   96  A    between atoms: _219  and  _220
REMARK   97  A    between atoms: _224  and  _225
REMARK   98  A    between atoms: _230  and  _232
REMARK   99  A    between atoms: _232  and  _233
REMARK  100  A    between atoms: _232  and  _235
REMARK  101  A    between atoms: _235  and  _236
REMARK  102  A    between atoms: _240  and  _241
REMARK  103  A    between atoms: _246  and  _248
REMARK  104  A    between atoms: _248  and  _249
REMARK  105  A    between atoms: _248  and  _251
REMARK  106  A    between atoms: _254  and  _256
REMARK  107  A    between atoms: _256  and  _257
REMARK  108  A    between atoms: _256  and  _259
REMARK  109  A    between atoms: _259  and  _260
REMARK  110  A    between atoms: _265  and  _267
REMARK  111  A    between atoms: _267  and  _268
REMARK  112  A    between atoms: _267  and  _270
REMARK  113  A    between atoms: _270  and  _271
REMARK  114  A    between atoms: _274  and  _276
REMARK  115  A    between atoms: _276  and  _277
REMARK  116  A    between atoms: _276  and  _279
REMARK  117  A    between atoms: _279  and  _280
REMARK  118  A    between atoms: _283  and  _285
REMARK  119  A    between atoms: _285  and  _286
REMARK  120  A    between atoms: _288  and  _290
REMARK  121  A    between atoms: _290  and  _291
REMARK  122  A    between atoms: _290  and  _293
REMARK  123  A    between atoms: _293  and  _294
REMARK  124  A    between atoms: _294  and  _295
REMARK  125  A    between atoms: _295  and  _296
REMARK  126  A    between atoms: _305  and  _307
REMARK  127  A    between atoms: _307  and  _308
REMARK  128  A    between atoms: _307  and  _310
REMARK  129  A    between atoms: _310  and  _311
REMARK  130  A    between atoms: _316  and  _318
REMARK  131  A    between atoms: _318  and  _319
REMARK  132  A    between atoms: _318  and  _321
REMARK  133  A    between atoms: _321  and  _322
REMARK  134  A    between atoms: _322  and  _323
REMARK  135  A    between atoms: _323  and  _324
REMARK  136  A    between atoms: _324  and  _325
REMARK  137  A    between atoms: _329  and  _331
REMARK  138  A    between atoms: _331  and  _332
REMARK  139  A    between atoms: _331  and  _334
REMARK  140  A    between atoms: _334  and  _335
REMARK  141  A    between atoms: _335  and  _336
REMARK  142  A    between atoms: _336  and  _337
REMARK  143  A    between atoms: _346  and  _348
REMARK  144  A    between atoms: _348  and  _349
REMARK  145  A    between atoms: _348  and  _351
REMARK  146  A    between atoms: _351  and  _352
REMARK  147  A    between atoms: _355  and  _357
REMARK  148  A    between atoms: _357  and  _358
REMARK  149  A    between atoms: _357  and  _360
REMARK  150  A    between atoms: _360  and  _361
REMARK  151  A    between atoms: _364  and  _366
REMARK  152  A    between atoms: _366  and  _367
REMARK  153  A    between atoms: _366  and  _369
REMARK  154  A    between atoms: _369  and  _370
REMARK  155  A    between atoms: _373  and  _375
REMARK  156  A    between atoms: _375  and  _376
REMARK  157  A    between atoms: _375  and  _378
REMARK  158  A    between atoms: _378  and  _379
REMARK  159  A    between atoms: _382  and  _384
REMARK  160  A    between atoms: _384  and  _385
REMARK  161  A    between atoms: _387  and  _389
REMARK  162  A    between atoms: _389  and  _390
REMARK  163  A    between atoms: _393  and  _395
REMARK  164  A    between atoms: _395  and  _396
REMARK  165  A    between atoms: _395  and  _398
REMARK  166  A    between atoms: _398  and  _399
REMARK  167  A    between atoms: _402  and  _404
REMARK  168  A    between atoms: _404  and  _405
REMARK  169  A    between atoms: _404  and  _407
REMARK  170  A    between atoms: _407  and  _408
REMARK  171  A    between atoms: _411  and  _413
REMARK  172  A    between atoms: _413  and  _414
REMARK  173  A    between atoms: _413  and  _416
REMARK  174  A    between atoms: _416  and  _417
REMARK  175  A    between atoms: _420  and  _422
REMARK  176  A    between atoms: _422  and  _423
REMARK  177  A    between atoms: _422  and  _425
REMARK  178  A    between atoms: _428  and  _430
REMARK  179  A    between atoms: _430  and  _431
REMARK  180  A    between atoms: _430  and  _433
REMARK  181  A    between atoms: _433  and  _434
REMARK  182  A    between atoms: _434  and  _435
REMARK  183  A    between atoms: _435  and  _436
REMARK  184  A    between atoms: _436  and  _437
REMARK  185  A    between atoms: _441  and  _443
REMARK  186  A    between atoms: _443  and  _444
REMARK  187  A    between atoms: _443  and  _446
REMARK  188  A    between atoms: _446  and  _447
REMARK  189  A    between atoms: _447  and  _448
REMARK  190  A    between atoms: _450  and  _452
REMARK  191  A    between atoms: _452  and  _453
REMARK  192  A    between atoms: _452  and  _455
REMARK  193  A    between atoms: _455  and  _456
REMARK  194  A    between atoms: _459  and  _461
REMARK  195  A    between atoms: _461  and  _462
REMARK  196  A    between atoms: _464  and  _466
REMARK  197  A    between atoms: _466  and  _467
REMARK  198  A    between atoms: _469  and  _471
REMARK  199  A    between atoms: _471  and  _472
REMARK  200  A    between atoms: _471  and  _474
REMARK  201  A    between atoms: _474  and  _475
REMARK  202  A    between atoms: _478  and  _480
REMARK  203  A    between atoms: _480  and  _481
REMARK  204  A    between atoms: _483  and  _485
REMARK  205  A    between atoms: _485  and  _486
REMARK  206  A    between atoms: _488  and  _490
REMARK  207  A    between atoms: _490  and  _491
REMARK  208  A    between atoms: _490  and  _493
REMARK  209  A    between atoms: _493  and  _494
REMARK  210  A    between atoms: _500  and  _502
REMARK  211  A    between atoms: _502  and  _503
REMARK  212  A    between atoms: _502  and  _505
REMARK  213  A    between atoms: _505  and  _506
REMARK  214  A    between atoms: _509  and  _511
REMARK  215  A    between atoms: _511  and  _512
REMARK  216  A    between atoms: _511  and  _514
REMARK  217  A    between atoms: _517  and  _519
REMARK  218  A    between atoms: _519  and  _520
REMARK  219  A    between atoms: _519  and  _522
REMARK  220  A    between atoms: _522  and  _523
REMARK  221  A    between atoms: _523  and  _524
REMARK  222  A    between atoms: _529  and  _531
REMARK  223  A    between atoms: _531  and  _532
REMARK  224  A    between atoms: _531  and  _534
REMARK  225  A    between atoms: _534  and  _535
REMARK  226  A    between atoms: _539  and  _540
REMARK  227  A    between atoms: _545  and  _547
REMARK  228  A    between atoms: _547  and  _548
REMARK  229  A    between atoms: _547  and  _550
REMARK  230  A    between atoms: _550  and  _551
REMARK  231  A    between atoms: _555  and  _556
REMARK  232  A    between atoms: _561  and  _563
REMARK  233  A    between atoms: _563  and  _564
REMARK  234  A    between atoms: _563  and  _566
REMARK  235  A    between atoms: _569  and  _571
REMARK  236  A    between atoms: _571  and  _572
REMARK  237  A    between atoms: _571  and  _574
REMARK  238  A    between atoms: _574  and  _575
REMARK  239  A    between atoms: _580  and  _582
REMARK  240  A    between atoms: _582  and  _583
REMARK  241  A    between atoms: _582  and  _585
REMARK  242  A    between atoms: _585  and  _586
REMARK  243  A    between atoms: _589  and  _591
REMARK  244  A    between atoms: _591  and  _592
REMARK  245  A    between atoms: _591  and  _594
REMARK  246  A    between atoms: _594  and  _595
REMARK  247  A    between atoms: _598  and  _600
REMARK  248  A    between atoms: _600  and  _601
REMARK  249  A    between atoms: _603  and  _605
REMARK  250  A    between atoms: _605  and  _606
REMARK  251  A    between atoms: _605  and  _608
REMARK  252  A    between atoms: _608  and  _609
REMARK  253  A    between atoms: _609  and  _610
REMARK  254  A    between atoms: _610  and  _611
REMARK                            x       y       z     vdW  Elec       q    Type
REMARK                         _______ _______ _______ _____ _____    ______ ____
ROOT
ATOM      1  CB  GLN A   1      -9.418 -11.616  31.091  0.00  0.00    +0.035 C 
ENDROOT
BRANCH   1   2
ATOM      2  CA  GLN A   1     -10.698 -10.853  30.846  0.00  0.00    +0.134 C 
BRANCH   2   3
ATOM      3  N   GLN A   1     -10.408  -9.482  30.552  0.00  0.00    -0.239 NA
ATOM      4  H   GLN A   1      -9.645  -8.993  31.063  0.00  0.00    +0.142 HD
ENDBRANCH   2   3
BRANCH   2   5
ATOM      5  C   GLN A   1     -11.658 -11.043  32.017  0.00  0.00    +0.224 C 
ATOM      6  O   GLN A   1     -11.348 -10.686  33.150  0.00  0.00    -0.287 OA
ENDBRANCH   2   5
ENDBRANCH   1   2
BRANCH   1   7
ATOM      7  CG  GLN A   1      -9.682 -13.035  31.445  0.00  0.00    +0.087 C 
BRANCH   7   8
ATOM      8  CD  GLN A   1      -8.449 -13.823  31.440  0.00  0.00    +0.219 C 
ATOM      9  OE1 GLN A   1      -8.166 -14.513  32.395  0.00  0.00    -0.275 OA
ATOM     10  NE2 GLN A   1      -7.673 -13.705  30.373  0.00  0.00    -0.329 N 
ATOM     11 HE21 GLN A   1      -6.770 -14.220  30.327  0.00  0.00    +0.145 HD
ATOM     12 HE22 GLN A   1      -7.966 -13.098  29.581  0.00  0.00    +0.145 HD
ENDBRANCH   7   8
ENDBRANCH   1   7
TORSDOF 5
REMARK  Name = ../refined-set-2016/2p3c/2p3c_pocket.pdb
REMARK  254 active torsions:
REMARK  status: ('A' for Active; 'I' for Inactive)
REMARK    1  A    between atoms: _1  and  _3
REMARK    2  A    between atoms: _3  and  _4
REMARK    3  A    between atoms: _3  and  _6
REMARK    4  A    between atoms: _6  and  _7
REMARK    5  A    between atoms: _7  and  _8
REMARK    6  A    between atoms: _8  and  _9
REMARK    7  A    between atoms: _9  and  _10
REMARK    8  A    between atoms: _14  and  _16
REMARK    9  A    between atoms: _16  and  _17
REMARK   10  A    between atoms: _16  and  _19
REMARK   11  A    between atoms: _19  and  _20
REMARK   12  A    between atoms: _20  and  _21
REMARK   13  A    between atoms: _21  and  _22
REMARK   14  A    between atoms: _31  and  _33
REMARK   15  A    between atoms: _33  and  _34
REMARK   16  A    between atoms: _33  and  _36
REMARK   17  A    between atoms: _36  and  _37
REMARK   18  A    between atoms: _40  and  _42
REMARK   19  A    between atoms: _42  and  _43
REMARK   20  A    between atoms: _42  and  _45
REMARK   21  A    between atoms: _45  and  _46
REMARK   22  A    between atoms: _49  and  _51
REMARK   23  A    between atoms: _51  and  _52
REMARK   24  A    between atoms: _51  and  _54
REMARK   25  A    between atoms: _54  and  _55
REMARK   26  A    between atoms: _58  and  _60
REMARK   27  A    between atoms: _60  and  _61
REMARK   28  A    between atoms: _60  and  _63
REMARK   29  A    between atoms: _63  and  _64
REMARK   30  A    between atoms: _67  and  _69
REMARK   31  A    between atoms: _69  and  _70
REMARK   32  A    between atoms: _72  and  _74
REMARK   33  A    between atoms: _74  and  _75
REMARK   34  A    between atoms: _78  and  _80
REMARK   35  A    between atoms: _80  and  _81
REMARK   36  A    between atoms: _80  and  _83
REMARK   37  A    between atoms: _83  and  _84
REMARK   38  A    between atoms: _87  and  _89
REMARK   39  A    between atoms: _89  and  _90
REMARK   40  A    between atoms: _89  and  _92
REMARK   41  A    between atoms: _92  and  _93
REMARK   42  A    between atoms: _96  and  _98
REMARK   43  A    between atoms: _98  and  _99
REMARK   44  A    between atoms: _98  and  _101
REMARK   45  A    between atoms: _101  and  _102
REMARK   46  A    between atoms: _105  and  _107
REMARK   47  A    between atoms: _107  and  _108
REMARK   48  A    between atoms: _107  and  _110
REMARK   49  A    between atoms: _113  and  _115
REMARK   50  A    between atoms: _115  and  _116
REMARK   51  A    between atoms: _115  and  _118
REMARK   52  A    between atoms: _118  and  _119
REMARK   53  A    between atoms: _119  and  _120
REMARK   54  A    between atoms: _120  and  _121
REMARK   55  A    between atoms: _121  and  _122
REMARK   56  A    between atoms: _126  and  _128
REMARK   57  A    between atoms: _128  and  _129
REMARK   58  A    between atoms: _128  and  _131
REMARK   59  A    between atoms: _131  and  _132
REMARK   60  A    between atoms: _132  and  _133
REMARK   61  A    between atoms: _135  and  _137
REMARK   62  A    between atoms: _137  and  _138
REMARK   63  A    between atoms: _137  and  _140
REMARK   64  A    between atoms: _140  and  _141
REMARK   65  A    between atoms: _144  and  _146
REMARK   66  A    between atoms: _146  and  _147
REMARK   67  A    between atoms: _149  and  _151
REMARK   68  A    between atoms: _151  and  _152
REMARK   69  A    between atoms: _154  and  _156
REMARK   70  A    between atoms: _156  and  _157
REMARK   71  A    between atoms: _156  and  _159
REMARK   72  A    between atoms: _159  and  _160
REMARK   73  A    between atoms: _163  and  _165
REMARK   74  A    between atoms: _165  and  _166
REMARK   75  A    between atoms: _168  and  _170
REMARK   76  A    between atoms: _170  and  _171
REMARK   77  A    between atoms: _173  and  _175
REMARK   78  A    between atoms: _175  and  _176
REMARK   79  A    between atoms: _175  and  _178
REMARK   80  A    between atoms: _178  and  _179
REMARK   81  A    between atoms: _185  and  _187
REMARK   82  A    between atoms: _187  and  _188
REMARK   83  A    between atoms: _187  and  _190
REMARK   84  A    between atoms: _190  and  _191
REMARK   85  A    between atoms: _194  and  _196
REMARK   86  A    between atoms: _196  and  _197
REMARK   87  A    between atoms: _196  and  _199
REMARK   88  A    between atoms: _202  and  _204
REMARK   89  A    between atoms: _204  and  _205
REMARK   90  A    between atoms: _204  and  _207
REMARK   91  A    between atoms: _207  and  _208
REMARK   92  A    between atoms: _208  and  _209
REMARK   93  A    between atoms: _214  and  _216
REMARK   94  A    between atoms: _216  and  _217
REMARK   95  A    between atoms: _216  and  _219
REMARK   96  A    between atoms: _219  and  _220
REMARK   97  A    between atoms: _224  and  _225
REMARK   98  A    between atoms: _230  and  _232
REMARK   99  A    between atoms: _232  and  _233
REMARK  100  A    between atoms: _232  and  _235
REMARK  101  A    between atoms: _235  and  _236
REMARK  102  A    between atoms: _240  and  _241
REMARK  103  A    between atoms: _246  and  _248
REMARK  104  A    between atoms: _248  and  _249
REMARK  105  A    between atoms: _248  and  _251
REMARK  106  A    between atoms: _254  and  _256
REMARK  107  A    between atoms: _256  and  _257
REMARK  108  A    between atoms: _256  and  _259
REMARK  109  A    between atoms: _259  and  _260
REMARK  110  A    between atoms: _265  and  _267
REMARK  111  A    between atoms: _267  and  _268
REMARK  112  A    between atoms: _267  and  _270
REMARK  113  A    between atoms: _270  and  _271
REMARK  114  A    between atoms: _274  and  _276
REMARK  115  A    between atoms: _276  and  _277
REMARK  116  A    between atoms: _276  and  _279
REMARK  117  A    between atoms: _279  and  _280
REMARK  118  A    between atoms: _283  and  _285
REMARK  119  A    between atoms: _285  and  _286
REMARK  120  A    between atoms: _288  and  _290
REMARK  121  A    between atoms: _290  and  _291
REMARK  122  A    between atoms: _290  and  _293
REMARK  123  A    between atoms: _293  and  _294
REMARK  124  A    between atoms: _294  and  _295
REMARK  125  A    between atoms: _295  and  _296
REMARK  126  A    between atoms: _305  and  _307
REMARK  127  A    between atoms: _307  and  _308
REMARK  128  A    between atoms: _307  and  _310
REMARK  129  A    between atoms: _310  and  _311
REMARK  130  A    between atoms: _316  and  _318
REMARK  131  A    between atoms: _318  and  _319
REMARK  132  A    between atoms: _318  and  _321
REMARK  133  A    between atoms: _321  and  _322
REMARK  134  A    between atoms: _322  and  _323
REMARK  135  A    between atoms: _323  and  _324
REMARK  136  A    between atoms: _324  and  _325
REMARK  137  A    between atoms: _329  and  _331
REMARK  138  A    between atoms: _331  and  _332
REMARK  139  A    between atoms: _331  and  _334
REMARK  140  A    between atoms: _334  and  _335
REMARK  141  A    between atoms: _335  and  _336
REMARK  142  A    between atoms: _336  and  _337
REMARK  143  A    between atoms: _346  and  _348
REMARK  144  A    between atoms: _348  and  _349
REMARK  145  A    between atoms: _348  and  _351
REMARK  146  A    between atoms: _351  and  _352
REMARK  147  A    between atoms: _355  and  _357
REMARK  148  A    between atoms: _357  and  _358
REMARK  149  A    between atoms: _357  and  _360
REMARK  150  A    between atoms: _360  and  _361
REMARK  151  A    between atoms: _364  and  _366
REMARK  152  A    between atoms: _366  and  _367
REMARK  153  A    between atoms: _366  and  _369
REMARK  154  A    between atoms: _369  and  _370
REMARK  155  A    between atoms: _373  and  _375
REMARK  156  A    between atoms: _375  and  _376
REMARK  157  A    between atoms: _375  and  _378
REMARK  158  A    between atoms: _378  and  _379
REMARK  159  A    between atoms: _382  and  _384
REMARK  160  A    between atoms: _384  and  _385
REMARK  161  A    between atoms: _387  and  _389
REMARK  162  A    between atoms: _389  and  _390
REMARK  163  A    between atoms: _393  and  _395
REMARK  164  A    between atoms: _395  and  _396
REMARK  165  A    between atoms: _395  and  _398
REMARK  166  A    between atoms: _398  and  _399
REMARK  167  A    between atoms: _402  and  _404
REMARK  168  A    between atoms: _404  and  _405
REMARK  169  A    between atoms: _404  and  _407
REMARK  170  A    between atoms: _407  and  _408
REMARK  171  A    between atoms: _411  and  _413
REMARK  172  A    between atoms: _413  and  _414
REMARK  173  A    between atoms: _413  and  _416
REMARK  174  A    between atoms: _416  and  _417
REMARK  175  A    between atoms: _420  and  _422
REMARK  176  A    between atoms: _422  and  _423
REMARK  177  A    between atoms: _422  and  _425
REMARK  178  A    between atoms: _428  and  _430
REMARK  179  A    between atoms: _430  and  _431
REMARK  180  A    between atoms: _430  and  _433
REMARK  181  A    between atoms: _433  and  _434
REMARK  182  A    between atoms: _434  and  _435
REMARK  183  A    between atoms: _435  and  _436
REMARK  184  A    between atoms: _436  and  _437
REMARK  185  A    between atoms: _441  and  _443
REMARK  186  A    between atoms: _443  and  _444
REMARK  187  A    between atoms: _443  and  _446
REMARK  188  A    between atoms: _446  and  _447
REMARK  189  A    between atoms: _447  and  _448
REMARK  190  A    between atoms: _450  and  _452
REMARK  191  A    between atoms: _452  and  _453
REMARK  192  A    between atoms: _452  and  _455
REMARK  193  A    between atoms: _455  and  _456
REMARK  194  A    between atoms: _459  and  _461
REMARK  195  A    between atoms: _461  and  _462
REMARK  196  A    between atoms: _464  and  _466
REMARK  197  A    between atoms: _466  and  _467
REMARK  198  A    between atoms: _469  and  _471
REMARK  199  A    between atoms: _471  and  _472
REMARK  200  A    between atoms: _471  and  _474
REMARK  201  A    between atoms: _474  and  _475
REMARK  202  A    between atoms: _478  and  _480
REMARK  203  A    between atoms: _480  and  _481
REMARK  204  A    between atoms: _483  and  _485
REMARK  205  A    between atoms: _485  and  _486
REMARK  206  A    between atoms: _488  and  _490
REMARK  207  A    between atoms: _490  and  _491
REMARK  208  A    between atoms: _490  and  _493
REMARK  209  A    between atoms: _493  and  _494
REMARK  210  A    between atoms: _500  and  _502
REMARK  211  A    between atoms: _502  and  _503
REMARK  212  A    between atoms: _502  and  _505
REMARK  213  A    between atoms: _505  and  _506
REMARK  214  A    between atoms: _509  and  _511
REMARK  215  A    between atoms: _511  and  _512
REMARK  216  A    between atoms: _511  and  _514
REMARK  217  A    between atoms: _517  and  _519
REMARK  218  A    between atoms: _519  and  _520
REMARK  219  A    between atoms: _519  and  _522
REMARK  220  A    between atoms: _522  and  _523
REMARK  221  A    between atoms: _523  and  _524
REMARK  222  A    between atoms: _529  and  _531
REMARK  223  A    between atoms: _531  and  _532
REMARK  224  A    between atoms: _531  and  _534
REMARK  225  A    between atoms: _534  and  _535
REMARK  226  A    between atoms: _539  and  _540
REMARK  227  A    between atoms: _545  and  _547
REMARK  228  A    between atoms: _547  and  _548
REMARK  229  A    between atoms: _547  and  _550
REMARK  230  A    between atoms: _550  and  _551
REMARK  231  A    between atoms: _555  and  _556
REMARK  232  A    between atoms: _561  and  _563
REMARK  233  A    between atoms: _563  and  _564
REMARK  234  A    between atoms: _563  and  _566
REMARK  235  A    between atoms: _569  and  _571
REMARK  236  A    between atoms: _571  and  _572
REMARK  237  A    between atoms: _571  and  _574
REMARK  238  A    between atoms: _574  and  _575
REMARK  239  A    between atoms: _580  and  _582
REMARK  240  A    between atoms: _582  and  _583
REMARK  241  A    between atoms: _582  and  _585
REMARK  242  A    between atoms: _585  and  _586
REMARK  243  A    between atoms: _589  and  _591
REMARK  244  A    between atoms: _591  and  _592
REMARK  245  A    between atoms: _591  and  _594
REMARK  246  A    between atoms: _594  and  _595
REMARK  247  A    between atoms: _598  and  _600
REMARK  248  A    between atoms: _600  and  _601
REMARK  249  A    between atoms: _603  and  _605
REMARK  250  A    between atoms: _605  and  _606
REMARK  251  A    between atoms: _605  and  _608
REMARK  252  A    between atoms: _608  and  _609
REMARK  253  A    between atoms: _609  and  _610
REMARK  254  A    between atoms: _610  and  _611
REMARK                            x       y       z     vdW  Elec       q    Type
REMARK                         _______ _______ _______ _____ _____    ______ ____
ROOT
ATOM      1  CA  LEU A   1     -12.741 -11.692  26.875  0.00  0.00    +0.133 C 
ENDROOT
BRANCH   1   2
ATOM      2  N   LEU A   1     -13.457 -12.932  27.088  0.00  0.00    -0.239 NA
ATOM      3  H   LEU A   1     -13.493 -13.636  26.323  0.00  0.00    +0.142 HD
ENDBRANCH   1   2
BRANCH   1   4
ATOM      4  C   LEU A   1     -13.679 -10.663  26.244  0.00  0.00    +0.224 C 
ATOM      5  O   LEU A   1     -14.513 -10.972  25.404  0.00  0.00    -0.287 OA
ENDBRANCH   1   4
BRANCH   1   6
ATOM      6  CB  LEU A   1     -11.494 -11.938  26.012  0.00  0.00    +0.025 C 
BRANCH   6   7
ATOM      7  CG  LEU A   1     -10.677 -13.173  26.425  0.00  0.00    +0.002 C 
ATOM      8  CD2 LEU A   1     -10.180 -13.130  27.879  0.00  0.00    +0.000 C 
ATOM      9  CD1 LEU A   1      -9.528 -13.397  25.510  0.00  0.00    +0.000 C 
ENDBRANCH   6   7
ENDBRANCH   1   6
TORSDOF 4
REMARK  Name = ../refined-set-2016/2p3c/2p3c_pocket.pdb
REMARK  254 active torsions:
REMARK  status: ('A' for Active; 'I' for Inactive)
REMARK    1  A    between atoms: _1  and  _3
REMARK    2  A    between atoms: _3  and  _4
REMARK    3  A    between atoms: _3  and  _6
REMARK    4  A    between atoms: _6  and  _7
REMARK    5  A    between atoms: _7  and  _8
REMARK    6  A    between atoms: _8  and  _9
REMARK    7  A    between atoms: _9  and  _10
REMARK    8  A    between atoms: _14  and  _16
REMARK    9  A    between atoms: _16  and  _17
REMARK   10  A    between atoms: _16  and  _19
REMARK   11  A    between atoms: _19  and  _20
REMARK   12  A    between atoms: _20  and  _21
REMARK   13  A    between atoms: _21  and  _22
REMARK   14  A    between atoms: _31  and  _33
REMARK   15  A    between atoms: _33  and  _34
REMARK   16  A    between atoms: _33  and  _36
REMARK   17  A    between atoms: _36  and  _37
REMARK   18  A    between atoms: _40  and  _42
REMARK   19  A    between atoms: _42  and  _43
REMARK   20  A    between atoms: _42  and  _45
REMARK   21  A    between atoms: _45  and  _46
REMARK   22  A    between atoms: _49  and  _51
REMARK   23  A    between atoms: _51  and  _52
REMARK   24  A    between atoms: _51  and  _54
REMARK   25  A    between atoms: _54  and  _55
REMARK   26  A    between atoms: _58  and  _60
REMARK   27  A    between atoms: _60  and  _61
REMARK   28  A    between atoms: _60  and  _63
REMARK   29  A    between atoms: _63  and  _64
REMARK   30  A    between atoms: _67  and  _69
REMARK   31  A    between atoms: _69  and  _70
REMARK   32  A    between atoms: _72  and  _74
REMARK   33  A    between atoms: _74  and  _75
REMARK   34  A    between atoms: _78  and  _80
REMARK   35  A    between atoms: _80  and  _81
REMARK   36  A    between atoms: _80  and  _83
REMARK   37  A    between atoms: _83  and  _84
REMARK   38  A    between atoms: _87  and  _89
REMARK   39  A    between atoms: _89  and  _90
REMARK   40  A    between atoms: _89  and  _92
REMARK   41  A    between atoms: _92  and  _93
REMARK   42  A    between atoms: _96  and  _98
REMARK   43  A    between atoms: _98  and  _99
REMARK   44  A    between atoms: _98  and  _101
REMARK   45  A    between atoms: _101  and  _102
REMARK   46  A    between atoms: _105  and  _107
REMARK   47  A    between atoms: _107  and  _108
REMARK   48  A    between atoms: _107  and  _110
REMARK   49  A    between atoms: _113  and  _115
REMARK   50  A    between atoms: _115  and  _116
REMARK   51  A    between atoms: _115  and  _118
REMARK   52  A    between atoms: _118  and  _119
REMARK   53  A    between atoms: _119  and  _120
REMARK   54  A    between atoms: _120  and  _121
REMARK   55  A    between atoms: _121  and  _122
REMARK   56  A    between atoms: _126  and  _128
REMARK   57  A    between atoms: _128  and  _129
REMARK   58  A    between atoms: _128  and  _131
REMARK   59  A    between atoms: _131  and  _132
REMARK   60  A    between atoms: _132  and  _133
REMARK   61  A    between atoms: _135  and  _137
REMARK   62  A    between atoms: _137  and  _138
REMARK   63  A    between atoms: _137  and  _140
REMARK   64  A    between atoms: _140  and  _141
REMARK   65  A    between atoms: _144  and  _146
REMARK   66  A    between atoms: _146  and  _147
REMARK   67  A    between atoms: _149  and  _151
REMARK   68  A    between atoms: _151  and  _152
REMARK   69  A    between atoms: _154  and  _156
REMARK   70  A    between atoms: _156  and  _157
REMARK   71  A    between atoms: _156  and  _159
REMARK   72  A    between atoms: _159  and  _160
REMARK   73  A    between atoms: _163  and  _165
REMARK   74  A    between atoms: _165  and  _166
REMARK   75  A    between atoms: _168  and  _170
REMARK   76  A    between atoms: _170  and  _171
REMARK   77  A    between atoms: _173  and  _175
REMARK   78  A    between atoms: _175  and  _176
REMARK   79  A    between atoms: _175  and  _178
REMARK   80  A    between atoms: _178  and  _179
REMARK   81  A    between atoms: _185  and  _187
REMARK   82  A    between atoms: _187  and  _188
REMARK   83  A    between atoms: _187  and  _190
REMARK   84  A    between atoms: _190  and  _191
REMARK   85  A    between atoms: _194  and  _196
REMARK   86  A    between atoms: _196  and  _197
REMARK   87  A    between atoms: _196  and  _199
REMARK   88  A    between atoms: _202  and  _204
REMARK   89  A    between atoms: _204  and  _205
REMARK   90  A    between atoms: _204  and  _207
REMARK   91  A    between atoms: _207  and  _208
REMARK   92  A    between atoms: _208  and  _209
REMARK   93  A    between atoms: _214  and  _216
REMARK   94  A    between atoms: _216  and  _217
REMARK   95  A    between atoms: _216  and  _219
REMARK   96  A    between atoms: _219  and  _220
REMARK   97  A    between atoms: _224  and  _225
REMARK   98  A    between atoms: _230  and  _232
REMARK   99  A    between atoms: _232  and  _233
REMARK  100  A    between atoms: _232  and  _235
REMARK  101  A    between atoms: _235  and  _236
REMARK  102  A    between atoms: _240  and  _241
REMARK  103  A    between atoms: _246  and  _248
REMARK  104  A    between atoms: _248  and  _249
REMARK  105  A    between atoms: _248  and  _251
REMARK  106  A    between atoms: _254  and  _256
REMARK  107  A    between atoms: _256  and  _257
REMARK  108  A    between atoms: _256  and  _259
REMARK  109  A    between atoms: _259  and  _260
REMARK  110  A    between atoms: _265  and  _267
REMARK  111  A    between atoms: _267  and  _268
REMARK  112  A    between atoms: _267  and  _270
REMARK  113  A    between atoms: _270  and  _271
REMARK  114  A    between atoms: _274  and  _276
REMARK  115  A    between atoms: _276  and  _277
REMARK  116  A    between atoms: _276  and  _279
REMARK  117  A    between atoms: _279  and  _280
REMARK  118  A    between atoms: _283  and  _285
REMARK  119  A    between atoms: _285  and  _286
REMARK  120  A    between atoms: _288  and  _290
REMARK  121  A    between atoms: _290  and  _291
REMARK  122  A    between atoms: _290  and  _293
REMARK  123  A    between atoms: _293  and  _294
REMARK  124  A    between atoms: _294  and  _295
REMARK  125  A    between atoms: _295  and  _296
REMARK  126  A    between atoms: _305  and  _307
REMARK  127  A    between atoms: _307  and  _308
REMARK  128  A    between atoms: _307  and  _310
REMARK  129  A    between atoms: _310  and  _311
REMARK  130  A    between atoms: _316  and  _318
REMARK  131  A    between atoms: _318  and  _319
REMARK  132  A    between atoms: _318  and  _321
REMARK  133  A    between atoms: _321  and  _322
REMARK  134  A    between atoms: _322  and  _323
REMARK  135  A    between atoms: _323  and  _324
REMARK  136  A    between atoms: _324  and  _325
REMARK  137  A    between atoms: _329  and  _331
REMARK  138  A    between atoms: _331  and  _332
REMARK  139  A    between atoms: _331  and  _334
REMARK  140  A    between atoms: _334  and  _335
REMARK  141  A    between atoms: _335  and  _336
REMARK  142  A    between atoms: _336  and  _337
REMARK  143  A    between atoms: _346  and  _348
REMARK  144  A    between atoms: _348  and  _349
REMARK  145  A    between atoms: _348  and  _351
REMARK  146  A    between atoms: _351  and  _352
REMARK  147  A    between atoms: _355  and  _357
REMARK  148  A    between atoms: _357  and  _358
REMARK  149  A    between atoms: _357  and  _360
REMARK  150  A    between atoms: _360  and  _361
REMARK  151  A    between atoms: _364  and  _366
REMARK  152  A    between atoms: _366  and  _367
REMARK  153  A    between atoms: _366  and  _369
REMARK  154  A    between atoms: _369  and  _370
REMARK  155  A    between atoms: _373  and  _375
REMARK  156  A    between atoms: _375  and  _376
REMARK  157  A    between atoms: _375  and  _378
REMARK  158  A    between atoms: _378  and  _379
REMARK  159  A    between atoms: _382  and  _384
REMARK  160  A    between atoms: _384  and  _385
REMARK  161  A    between atoms: _387  and  _389
REMARK  162  A    between atoms: _389  and  _390
REMARK  163  A    between atoms: _393  and  _395
REMARK  164  A    between atoms: _395  and  _396
REMARK  165  A    between atoms: _395  and  _398
REMARK  166  A    between atoms: _398  and  _399
REMARK  167  A    between atoms: _402  and  _404
REMARK  168  A    between atoms: _404  and  _405
REMARK  169  A    between atoms: _404  and  _407
REMARK  170  A    between atoms: _407  and  _408
REMARK  171  A    between atoms: _411  and  _413
REMARK  172  A    between atoms: _413  and  _414
REMARK  173  A    between atoms: _413  and  _416
REMARK  174  A    between atoms: _416  and  _417
REMARK  175  A    between atoms: _420  and  _422
REMARK  176  A    between atoms: _422  and  _423
REMARK  177  A    between atoms: _422  and  _425
REMARK  178  A    between atoms: _428  and  _430
REMARK  179  A    between atoms: _430  and  _431
REMARK  180  A    between atoms: _430  and  _433
REMARK  181  A    between atoms: _433  and  _434
REMARK  182  A    between atoms: _434  and  _435
REMARK  183  A    between atoms: _435  and  _436
REMARK  184  A    between atoms: _436  and  _437
REMARK  185  A    between atoms: _441  and  _443
REMARK  186  A    between atoms: _443  and  _444
REMARK  187  A    between atoms: _443  and  _446
REMARK  188  A    between atoms: _446  and  _447
REMARK  189  A    between atoms: _447  and  _448
REMARK  190  A    between atoms: _450  and  _452
REMARK  191  A    between atoms: _452  and  _453
REMARK  192  A    between atoms: _452  and  _455
REMARK  193  A    between atoms: _455  and  _456
REMARK  194  A    between atoms: _459  and  _461
REMARK  195  A    between atoms: _461  and  _462
REMARK  196  A    between atoms: _464  and  _466
REMARK  197  A    between atoms: _466  and  _467
REMARK  198  A    between atoms: _469  and  _471
REMARK  199  A    between atoms: _471  and  _472
REMARK  200  A    between atoms: _471  and  _474
REMARK  201  A    between atoms: _474  and  _475
REMARK  202  A    between atoms: _478  and  _480
REMARK  203  A    between atoms: _480  and  _481
REMARK  204  A    between atoms: _483  and  _485
REMARK  205  A    between atoms: _485  and  _486
REMARK  206  A    between atoms: _488  and  _490
REMARK  207  A    between atoms: _490  and  _491
REMARK  208  A    between atoms: _490  and  _493
REMARK  209  A    between atoms: _493  and  _494
REMARK  210  A    between atoms: _500  and  _502
REMARK  211  A    between atoms: _502  and  _503
REMARK  212  A    between atoms: _502  and  _505
REMARK  213  A    between atoms: _505  and  _506
REMARK  214  A    between atoms: _509  and  _511
REMARK  215  A    between atoms: _511  and  _512
REMARK  216  A    between atoms: _511  and  _514
REMARK  217  A    between atoms: _517  and  _519
REMARK  218  A    between atoms: _519  and  _520
REMARK  219  A    between atoms: _519  and  _522
REMARK  220  A    between atoms: _522  and  _523
REMARK  221  A    between atoms: _523  and  _524
REMARK  222  A    between atoms: _529  and  _531
REMARK  223  A    between atoms: _531  and  _532
REMARK  224  A    between atoms: _531  and  _534
REMARK  225  A    between atoms: _534  and  _535
REMARK  226  A    between atoms: _539  and  _540
REMARK  227  A    between atoms: _545  and  _547
REMARK  228  A    between atoms: _547  and  _548
REMARK  229  A    between atoms: _547  and  _550
REMARK  230  A    between atoms: _550  and  _551
REMARK  231  A    between atoms: _555  and  _556
REMARK  232  A    between atoms: _561  and  _563
REMARK  233  A    between atoms: _563  and  _564
REMARK  234  A    between atoms: _563  and  _566
REMARK  235  A    between atoms: _569  and  _571
REMARK  236  A    between atoms: _571  and  _572
REMARK  237  A    between atoms: _571  and  _574
REMARK  238  A    between atoms: _574  and  _575
REMARK  239  A    between atoms: _580  and  _582
REMARK  240  A    between atoms: _582  and  _583
REMARK  241  A    between atoms: _582  and  _585
REMARK  242  A    between atoms: _585  and  _586
REMARK  243  A    between atoms: _589  and  _591
REMARK  244  A    between atoms: _591  and  _592
REMARK  245  A    between atoms: _591  and  _594
REMARK  246  A    between atoms: _594  and  _595
REMARK  247  A    between atoms: _598  and  _600
REMARK  248  A    between atoms: _600  and  _601
REMARK  249  A    between atoms: _603  and  _605
REMARK  250  A    between atoms: _605  and  _606
REMARK  251  A    between atoms: _605  and  _608
REMARK  252  A    between atoms: _608  and  _609
REMARK  253  A    between atoms: _609  and  _610
REMARK  254  A    between atoms: _610  and  _611
REMARK                            x       y       z     vdW  Elec       q    Type
REMARK                         _______ _______ _______ _____ _____    ______ ____
ROOT
ATOM      1  C   ASN A   5     -17.607 -13.418  18.269  0.00  0.00    +0.241 C 
ATOM      2  N   ILE A   6     -16.632 -13.832  19.054  0.00  0.00    -0.297 N 
ATOM      3  H   ILE A   6     -16.330 -13.233  19.849  0.00  0.00    +0.150 HD
ATOM      4  O   ASN A   5     -18.024 -14.068  17.296  0.00  0.00    -0.273 OA
ENDROOT
BRANCH   1   5
ATOM      5  CA  ASN A   5     -18.130 -12.024  18.568  0.00  0.00    +0.158 C 
BRANCH   5   8
ATOM      6  C   VAL A   4     -16.911 -10.918  16.792  0.00  0.00    +0.241 C 
ATOM      7  O   VAL A   4     -15.855 -11.044  17.375  0.00  0.00    -0.273 OA
ATOM      8  N   ASN A   5     -18.072 -11.255  17.341  0.00  0.00    -0.297 N 
ATOM      9  H   ASN A   5     -18.957 -10.961  16.881  0.00  0.00    +0.150 HD
BRANCH   6  10
ATOM     10  CA  VAL A   4     -16.955 -10.312  15.388  0.00  0.00    +0.149 C 
BRANCH  10  12
ATOM     11  C   PRO A   3     -16.450  -7.966  14.915  0.00  0.00    +0.241 C 
ATOM     12  N   VAL A   4     -16.133  -9.134  15.463  0.00  0.00    -0.297 N 
ATOM     13  H   VAL A   4     -15.233  -9.201  15.979  0.00  0.00    +0.150 HD
ATOM     14  O   PRO A   3     -17.482  -7.779  14.283  0.00  0.00    -0.273 OA
BRANCH  11  21
ATOM     15  C   THR A   2     -14.379  -7.103  17.273  0.00  0.00    +0.246 C 
ATOM     16  O   THR A   2     -15.391  -6.700  17.830  0.00  0.00    -0.273 OA
ATOM     17  N   PRO A   3     -14.287  -7.182  15.952  0.00  0.00    -0.272 N 
ATOM     18  CD  PRO A   3     -13.082  -7.517  15.180  0.00  0.00    +0.094 C 
ATOM     19  CG  PRO A   3     -13.586  -7.440  13.740  0.00  0.00    +0.024 C 
ATOM     20  CB  PRO A   3     -14.747  -6.556  13.755  0.00  0.00    +0.031 C 
ATOM     21  CA  PRO A   3     -15.421  -6.845  15.086  0.00  0.00    +0.152 C 
BRANCH  15  22
ATOM     22  CA  THR A   2     -13.158  -7.492  18.106  0.00  0.00    +0.176 C 
BRANCH  22  24
ATOM     23  C   PRO A   1     -12.517  -5.392  19.107  0.00  0.00    +0.239 C 
ATOM     24  N   THR A   2     -13.061  -6.587  19.228  0.00  0.00    -0.295 N 
ATOM     25  H   THR A   2     -13.429  -6.885  20.154  0.00  0.00    +0.150 HD
ATOM     26  O   PRO A   1     -11.917  -5.050  18.117  0.00  0.00    -0.274 OA
BRANCH  23  31
ATOM     27  N   PRO A   1     -12.211  -5.033  21.533  0.00  0.00    -0.210 NA
ATOM     28  CD  PRO A   1     -10.812  -4.658  21.818  0.00  0.00    +0.089 C 
ATOM     29  CG  PRO A   1     -10.589  -3.450  20.927  0.00  0.00    +0.021 C 
ATOM     30  CB  PRO A   1     -11.889  -3.154  20.168  0.00  0.00    +0.028 C 
ATOM     31  CA  PRO A   1     -12.698  -4.451  20.289  0.00  0.00    +0.149 C 
ENDBRANCH  23  31
ENDBRANCH  22  24
BRANCH  22  32
ATOM     32  CB  THR A   2     -13.263  -8.946  18.612  0.00  0.00    +0.137 C 
ATOM     33  CG2 THR A   2     -14.556  -9.180  19.407  0.00  0.00    +0.034 C 
BRANCH  32  34
ATOM     34  OG1 THR A   2     -13.358  -9.821  17.484  0.00  0.00    -0.382 OA
ATOM     35  HG1 THR A   2     -14.163  -9.590  16.956  0.00  0.00    +0.210 HD
ENDBRANCH  32  34
ENDBRANCH  22  32
ENDBRANCH  15  22
ENDBRANCH  11  21
ENDBRANCH  10  12
BRANCH  10  36
ATOM     36  CB  VAL A   4     -16.380 -11.330  14.359  0.00  0.00    +0.027 C 
ATOM     37  CG2 VAL A   4     -17.130 -12.639  14.427  0.00  0.00    +0.002 C 
ATOM     38  CG1 VAL A   4     -16.416 -10.750  12.946  0.00  0.00    +0.002 C 
ENDBRANCH  10  36
ENDBRANCH   6  10
ENDBRANCH   5   8
BRANCH   5  39
ATOM     39  CB  ASN A   5     -19.549 -12.080  19.109  0.00  0.00    +0.114 C 
BRANCH  39  40
ATOM     40  CG  ASN A   5     -20.067 -10.740  19.508  0.00  0.00    +0.222 C 
ATOM     41  OD1 ASN A   5     -19.355  -9.927  20.086  0.00  0.00    -0.275 OA
ATOM     42  ND2 ASN A   5     -21.325 -10.508  19.231  0.00  0.00    -0.329 N 
ATOM     43 HD21 ASN A   5     -21.759  -9.603  19.503  0.00  0.00    +0.145 HD
ATOM     44 HD22 ASN A   5     -21.890 -11.229  18.739  0.00  0.00    +0.145 HD
ENDBRANCH  39  40
ENDBRANCH   5  39
ENDBRANCH   1   5
BRANCH   2  45
ATOM     45  CA  ILE A   6     -15.969 -15.109  18.833  0.00  0.00    +0.149 C 
BRANCH  45  46
ATOM     46  C   ILE A   6     -16.243 -16.082  19.945  0.00  0.00    +0.241 C 
ATOM     47  O   ILE A   6     -15.968 -15.795  21.086  0.00  0.00    -0.273 OA
ATOM     48  N   ILE A   7     -16.735 -17.264  19.599  0.00  0.00    -0.297 N 
ATOM     49  H   ILE A   7     -17.116 -17.402  18.641  0.00  0.00    +0.150 HD
BRANCH  48  50
ATOM     50  CA  ILE A   7     -16.748 -18.363  20.540  0.00  0.00    +0.149 C 
BRANCH  50  51
ATOM     51  C   ILE A   7     -15.565 -19.253  20.276  0.00  0.00    +0.241 C 
ATOM     52  N   GLY A   8     -14.646 -19.282  21.236  0.00  0.00    -0.295 N 
ATOM     53  H   GLY A   8     -14.832 -18.790  22.133  0.00  0.00    +0.150 HD
ATOM     54  O   ILE A   7     -15.490 -19.914  19.238  0.00  0.00    -0.273 OA
BRANCH  52  55
ATOM     55  CA  GLY A   8     -13.392 -19.983  21.061  0.00  0.00    +0.176 C 
BRANCH  55  56
ATOM     56  C   GLY A   8     -13.490 -21.306  21.757  0.00  0.00    +0.243 C 
ATOM     57  O   GLY A   8     -14.514 -21.644  22.349  0.00  0.00    -0.273 OA
ATOM     58  N   ARG A   9     -12.389 -22.046  21.729  0.00  0.00    -0.298 N 
ATOM     59  H   ARG A   9     -11.497 -21.616  21.410  0.00  0.00    +0.150 HD
BRANCH  58  60
ATOM     60  CA  ARG A   9     -12.398 -23.434  22.131  0.00  0.00    +0.137 C 
BRANCH  60  61
ATOM     61  C   ARG A   9     -12.719 -23.649  23.602  0.00  0.00    +0.227 C 
ATOM     62  O   ARG A   9     -13.391 -24.643  23.946  0.00  0.00    -0.286 OA
ENDBRANCH  60  61
BRANCH  60  63
ATOM     63  CB  ARG A   9     -11.090 -24.102  21.745  0.00  0.00    +0.031 C 
BRANCH  63  64
ATOM     64  CG  ARG A   9     -10.917 -24.175  20.228  0.00  0.00    +0.045 C 
BRANCH  64  65
ATOM     65  CD  ARG A   9      -9.700 -24.973  19.816  0.00  0.00    +0.174 C 
BRANCH  65  66
ATOM     66  NE  ARG A   9      -8.474 -24.292  20.233  0.00  0.00    -0.265 N 
ATOM     67  CZ  ARG A   9      -7.783 -24.571  21.352  0.00  0.00    +0.342 C 
ATOM     68  NH2 ARG A   9      -8.202 -25.523  22.186  0.00  0.00    -0.292 N 
ATOM     69 HH21 ARG A   9      -7.662 -25.733  23.050  0.00  0.00    +0.255 HD
ATOM     70 HH22 ARG A   9      -9.069 -26.056  21.973  0.00  0.00    +0.255 HD
ATOM     71  NH1 ARG A   9      -6.669 -23.887  21.630  0.00  0.00    -0.292 N 
ATOM     72 HH11 ARG A   9      -6.131 -24.099  22.494  0.00  0.00    +0.255 HD
ATOM     73 HH12 ARG A   9      -6.340 -23.143  20.982  0.00  0.00    +0.255 HD
ATOM     74  HE  ARG A   9      -8.110 -23.536  19.618  0.00  0.00    +0.259 HD
ENDBRANCH  65  66
ENDBRANCH  64  65
ENDBRANCH  63  64
ENDBRANCH  60  63
ENDBRANCH  58  60
ENDBRANCH  55  56
ENDBRANCH  52  55
ENDBRANCH  50  51
BRANCH  50  75
ATOM     75  CB  ILE A   7     -18.073 -19.162  20.463  0.00  0.00    +0.027 C 
ATOM     76  CG2 ILE A   7     -18.136 -20.182  21.609  0.00  0.00    +0.002 C 
BRANCH  75  77
ATOM     77  CG1 ILE A   7     -19.271 -18.188  20.447  0.00  0.00    +0.002 C 
ATOM     78  CD1 ILE A   7     -19.297 -17.259  21.681  0.00  0.00    +0.000 C 
ENDBRANCH  75  77
ENDBRANCH  50  75
ENDBRANCH  48  50
ENDBRANCH  45  46
BRANCH  45  79
ATOM     79  CB  ILE A   6     -14.424 -14.933  18.756  0.00  0.00    +0.027 C 
ATOM     80  CG2 ILE A   6     -13.738 -16.314  18.661  0.00  0.00    +0.002 C 
BRANCH  79  81
ATOM     81  CG1 ILE A   6     -14.008 -13.952  17.651  0.00  0.00    +0.002 C 
ATOM     82  CD1 ILE A   6     -14.304 -14.407  16.237  0.00  0.00    +0.000 C 
ENDBRANCH  79  81
ENDBRANCH  45  79
ENDBRANCH   2  45
TORSDOF 29
REMARK  Name = ../refined-set-2016/2p3c/2p3c_pocket.pdb
REMARK  254 active torsions:
REMARK  status: ('A' for Active; 'I' for Inactive)
REMARK    1  A    between atoms: _1  and  _3
REMARK    2  A    between atoms: _3  and  _4
REMARK    3  A    between atoms: _3  and  _6
REMARK    4  A    between atoms: _6  and  _7
REMARK    5  A    between atoms: _7  and  _8
REMARK    6  A    between atoms: _8  and  _9
REMARK    7  A    between atoms: _9  and  _10
REMARK    8  A    between atoms: _14  and  _16
REMARK    9  A    between atoms: _16  and  _17
REMARK   10  A    between atoms: _16  and  _19
REMARK   11  A    between atoms: _19  and  _20
REMARK   12  A    between atoms: _20  and  _21
REMARK   13  A    between atoms: _21  and  _22
REMARK   14  A    between atoms: _31  and  _33
REMARK   15  A    between atoms: _33  and  _34
REMARK   16  A    between atoms: _33  and  _36
REMARK   17  A    between atoms: _36  and  _37
REMARK   18  A    between atoms: _40  and  _42
REMARK   19  A    between atoms: _42  and  _43
REMARK   20  A    between atoms: _42  and  _45
REMARK   21  A    between atoms: _45  and  _46
REMARK   22  A    between atoms: _49  and  _51
REMARK   23  A    between atoms: _51  and  _52
REMARK   24  A    between atoms: _51  and  _54
REMARK   25  A    between atoms: _54  and  _55
REMARK   26  A    between atoms: _58  and  _60
REMARK   27  A    between atoms: _60  and  _61
REMARK   28  A    between atoms: _60  and  _63
REMARK   29  A    between atoms: _63  and  _64
REMARK   30  A    between atoms: _67  and  _69
REMARK   31  A    between atoms: _69  and  _70
REMARK   32  A    between atoms: _72  and  _74
REMARK   33  A    between atoms: _74  and  _75
REMARK   34  A    between atoms: _78  and  _80
REMARK   35  A    between atoms: _80  and  _81
REMARK   36  A    between atoms: _80  and  _83
REMARK   37  A    between atoms: _83  and  _84
REMARK   38  A    between atoms: _87  and  _89
REMARK   39  A    between atoms: _89  and  _90
REMARK   40  A    between atoms: _89  and  _92
REMARK   41  A    between atoms: _92  and  _93
REMARK   42  A    between atoms: _96  and  _98
REMARK   43  A    between atoms: _98  and  _99
REMARK   44  A    between atoms: _98  and  _101
REMARK   45  A    between atoms: _101  and  _102
REMARK   46  A    between atoms: _105  and  _107
REMARK   47  A    between atoms: _107  and  _108
REMARK   48  A    between atoms: _107  and  _110
REMARK   49  A    between atoms: _113  and  _115
REMARK   50  A    between atoms: _115  and  _116
REMARK   51  A    between atoms: _115  and  _118
REMARK   52  A    between atoms: _118  and  _119
REMARK   53  A    between atoms: _119  and  _120
REMARK   54  A    between atoms: _120  and  _121
REMARK   55  A    between atoms: _121  and  _122
REMARK   56  A    between atoms: _126  and  _128
REMARK   57  A    between atoms: _128  and  _129
REMARK   58  A    between atoms: _128  and  _131
REMARK   59  A    between atoms: _131  and  _132
REMARK   60  A    between atoms: _132  and  _133
REMARK   61  A    between atoms: _135  and  _137
REMARK   62  A    between atoms: _137  and  _138
REMARK   63  A    between atoms: _137  and  _140
REMARK   64  A    between atoms: _140  and  _141
REMARK   65  A    between atoms: _144  and  _146
REMARK   66  A    between atoms: _146  and  _147
REMARK   67  A    between atoms: _149  and  _151
REMARK   68  A    between atoms: _151  and  _152
REMARK   69  A    between atoms: _154  and  _156
REMARK   70  A    between atoms: _156  and  _157
REMARK   71  A    between atoms: _156  and  _159
REMARK   72  A    between atoms: _159  and  _160
REMARK   73  A    between atoms: _163  and  _165
REMARK   74  A    between atoms: _165  and  _166
REMARK   75  A    between atoms: _168  and  _170
REMARK   76  A    between atoms: _170  and  _171
REMARK   77  A    between atoms: _173  and  _175
REMARK   78  A    between atoms: _175  and  _176
REMARK   79  A    between atoms: _175  and  _178
REMARK   80  A    between atoms: _178  and  _179
REMARK   81  A    between atoms: _185  and  _187
REMARK   82  A    between atoms: _187  and  _188
REMARK   83  A    between atoms: _187  and  _190
REMARK   84  A    between atoms: _190  and  _191
REMARK   85  A    between atoms: _194  and  _196
REMARK   86  A    between atoms: _196  and  _197
REMARK   87  A    between atoms: _196  and  _199
REMARK   88  A    between atoms: _202  and  _204
REMARK   89  A    between atoms: _204  and  _205
REMARK   90  A    between atoms: _204  and  _207
REMARK   91  A    between atoms: _207  and  _208
REMARK   92  A    between atoms: _208  and  _209
REMARK   93  A    between atoms: _214  and  _216
REMARK   94  A    between atoms: _216  and  _217
REMARK   95  A    between atoms: _216  and  _219
REMARK   96  A    between atoms: _219  and  _220
REMARK   97  A    between atoms: _224  and  _225
REMARK   98  A    between atoms: _230  and  _232
REMARK   99  A    between atoms: _232  and  _233
REMARK  100  A    between atoms: _232  and  _235
REMARK  101  A    between atoms: _235  and  _236
REMARK  102  A    between atoms: _240  and  _241
REMARK  103  A    between atoms: _246  and  _248
REMARK  104  A    between atoms: _248  and  _249
REMARK  105  A    between atoms: _248  and  _251
REMARK  106  A    between atoms: _254  and  _256
REMARK  107  A    between atoms: _256  and  _257
REMARK  108  A    between atoms: _256  and  _259
REMARK  109  A    between atoms: _259  and  _260
REMARK  110  A    between atoms: _265  and  _267
REMARK  111  A    between atoms: _267  and  _268
REMARK  112  A    between atoms: _267  and  _270
REMARK  113  A    between atoms: _270  and  _271
REMARK  114  A    between atoms: _274  and  _276
REMARK  115  A    between atoms: _276  and  _277
REMARK  116  A    between atoms: _276  and  _279
REMARK  117  A    between atoms: _279  and  _280
REMARK  118  A    between atoms: _283  and  _285
REMARK  119  A    between atoms: _285  and  _286
REMARK  120  A    between atoms: _288  and  _290
REMARK  121  A    between atoms: _290  and  _291
REMARK  122  A    between atoms: _290  and  _293
REMARK  123  A    between atoms: _293  and  _294
REMARK  124  A    between atoms: _294  and  _295
REMARK  125  A    between atoms: _295  and  _296
REMARK  126  A    between atoms: _305  and  _307
REMARK  127  A    between atoms: _307  and  _308
REMARK  128  A    between atoms: _307  and  _310
REMARK  129  A    between atoms: _310  and  _311
REMARK  130  A    between atoms: _316  and  _318
REMARK  131  A    between atoms: _318  and  _319
REMARK  132  A    between atoms: _318  and  _321
REMARK  133  A    between atoms: _321  and  _322
REMARK  134  A    between atoms: _322  and  _323
REMARK  135  A    between atoms: _323  and  _324
REMARK  136  A    between atoms: _324  and  _325
REMARK  137  A    between atoms: _329  and  _331
REMARK  138  A    between atoms: _331  and  _332
REMARK  139  A    between atoms: _331  and  _334
REMARK  140  A    between atoms: _334  and  _335
REMARK  141  A    between atoms: _335  and  _336
REMARK  142  A    between atoms: _336  and  _337
REMARK  143  A    between atoms: _346  and  _348
REMARK  144  A    between atoms: _348  and  _349
REMARK  145  A    between atoms: _348  and  _351
REMARK  146  A    between atoms: _351  and  _352
REMARK  147  A    between atoms: _355  and  _357
REMARK  148  A    between atoms: _357  and  _358
REMARK  149  A    between atoms: _357  and  _360
REMARK  150  A    between atoms: _360  and  _361
REMARK  151  A    between atoms: _364  and  _366
REMARK  152  A    between atoms: _366  and  _367
REMARK  153  A    between atoms: _366  and  _369
REMARK  154  A    between atoms: _369  and  _370
REMARK  155  A    between atoms: _373  and  _375
REMARK  156  A    between atoms: _375  and  _376
REMARK  157  A    between atoms: _375  and  _378
REMARK  158  A    between atoms: _378  and  _379
REMARK  159  A    between atoms: _382  and  _384
REMARK  160  A    between atoms: _384  and  _385
REMARK  161  A    between atoms: _387  and  _389
REMARK  162  A    between atoms: _389  and  _390
REMARK  163  A    between atoms: _393  and  _395
REMARK  164  A    between atoms: _395  and  _396
REMARK  165  A    between atoms: _395  and  _398
REMARK  166  A    between atoms: _398  and  _399
REMARK  167  A    between atoms: _402  and  _404
REMARK  168  A    between atoms: _404  and  _405
REMARK  169  A    between atoms: _404  and  _407
REMARK  170  A    between atoms: _407  and  _408
REMARK  171  A    between atoms: _411  and  _413
REMARK  172  A    between atoms: _413  and  _414
REMARK  173  A    between atoms: _413  and  _416
REMARK  174  A    between atoms: _416  and  _417
REMARK  175  A    between atoms: _420  and  _422
REMARK  176  A    between atoms: _422  and  _423
REMARK  177  A    between atoms: _422  and  _425
REMARK  178  A    between atoms: _428  and  _430
REMARK  179  A    between atoms: _430  and  _431
REMARK  180  A    between atoms: _430  and  _433
REMARK  181  A    between atoms: _433  and  _434
REMARK  182  A    between atoms: _434  and  _435
REMARK  183  A    between atoms: _435  and  _436
REMARK  184  A    between atoms: _436  and  _437
REMARK  185  A    between atoms: _441  and  _443
REMARK  186  A    between atoms: _443  and  _444
REMARK  187  A    between atoms: _443  and  _446
REMARK  188  A    between atoms: _446  and  _447
REMARK  189  A    between atoms: _447  and  _448
REMARK  190  A    between atoms: _450  and  _452
REMARK  191  A    between atoms: _452  and  _453
REMARK  192  A    between atoms: _452  and  _455
REMARK  193  A    between atoms: _455  and  _456
REMARK  194  A    between atoms: _459  and  _461
REMARK  195  A    between atoms: _461  and  _462
REMARK  196  A    between atoms: _464  and  _466
REMARK  197  A    between atoms: _466  and  _467
REMARK  198  A    between atoms: _469  and  _471
REMARK  199  A    between atoms: _471  and  _472
REMARK  200  A    between atoms: _471  and  _474
REMARK  201  A    between atoms: _474  and  _475
REMARK  202  A    between atoms: _478  and  _480
REMARK  203  A    between atoms: _480  and  _481
REMARK  204  A    between atoms: _483  and  _485
REMARK  205  A    between atoms: _485  and  _486
REMARK  206  A    between atoms: _488  and  _490
REMARK  207  A    between atoms: _490  and  _491
REMARK  208  A    between atoms: _490  and  _493
REMARK  209  A    between atoms: _493  and  _494
REMARK  210  A    between atoms: _500  and  _502
REMARK  211  A    between atoms: _502  and  _503
REMARK  212  A    between atoms: _502  and  _505
REMARK  213  A    between atoms: _505  and  _506
REMARK  214  A    between atoms: _509  and  _511
REMARK  215  A    between atoms: _511  and  _512
REMARK  216  A    between atoms: _511  and  _514
REMARK  217  A    between atoms: _517  and  _519
REMARK  218  A    between atoms: _519  and  _520
REMARK  219  A    between atoms: _519  and  _522
REMARK  220  A    between atoms: _522  and  _523
REMARK  221  A    between atoms: _523  and  _524
REMARK  222  A    between atoms: _529  and  _531
REMARK  223  A    between atoms: _531  and  _532
REMARK  224  A    between atoms: _531  and  _534
REMARK  225  A    between atoms: _534  and  _535
REMARK  226  A    between atoms: _539  and  _540
REMARK  227  A    between atoms: _545  and  _547
REMARK  228  A    between atoms: _547  and  _548
REMARK  229  A    between atoms: _547  and  _550
REMARK  230  A    between atoms: _550  and  _551
REMARK  231  A    between atoms: _555  and  _556
REMARK  232  A    between atoms: _561  and  _563
REMARK  233  A    between atoms: _563  and  _564
REMARK  234  A    between atoms: _563  and  _566
REMARK  235  A    between atoms: _569  and  _571
REMARK  236  A    between atoms: _571  and  _572
REMARK  237  A    between atoms: _571  and  _574
REMARK  238  A    between atoms: _574  and  _575
REMARK  239  A    between atoms: _580  and  _582
REMARK  240  A    between atoms: _582  and  _583
REMARK  241  A    between atoms: _582  and  _585
REMARK  242  A    between atoms: _585  and  _586
REMARK  243  A    between atoms: _589  and  _591
REMARK  244  A    between atoms: _591  and  _592
REMARK  245  A    between atoms: _591  and  _594
REMARK  246  A    between atoms: _594  and  _595
REMARK  247  A    between atoms: _598  and  _600
REMARK  248  A    between atoms: _600  and  _601
REMARK  249  A    between atoms: _603  and  _605
REMARK  250  A    between atoms: _605  and  _606
REMARK  251  A    between atoms: _605  and  _608
REMARK  252  A    between atoms: _608  and  _609
REMARK  253  A    between atoms: _609  and  _610
REMARK  254  A    between atoms: _610  and  _611
REMARK                            x       y       z     vdW  Elec       q    Type
REMARK                         _______ _______ _______ _____ _____    ______ ____
ROOT
ATOM      1  O   HOH     1      -7.425 -12.797  13.581  0.00  0.00    +0.000 OA
ENDROOT
TORSDOF 0
REMARK  Name = ../refined-set-2016/2p3c/2p3c_pocket.pdb
REMARK  254 active torsions:
REMARK  status: ('A' for Active; 'I' for Inactive)
REMARK    1  A    between atoms: _1  and  _3
REMARK    2  A    between atoms: _3  and  _4
REMARK    3  A    between atoms: _3  and  _6
REMARK    4  A    between atoms: _6  and  _7
REMARK    5  A    between atoms: _7  and  _8
REMARK    6  A    between atoms: _8  and  _9
REMARK    7  A    between atoms: _9  and  _10
REMARK    8  A    between atoms: _14  and  _16
REMARK    9  A    between atoms: _16  and  _17
REMARK   10  A    between atoms: _16  and  _19
REMARK   11  A    between atoms: _19  and  _20
REMARK   12  A    between atoms: _20  and  _21
REMARK   13  A    between atoms: _21  and  _22
REMARK   14  A    between atoms: _31  and  _33
REMARK   15  A    between atoms: _33  and  _34
REMARK   16  A    between atoms: _33  and  _36
REMARK   17  A    between atoms: _36  and  _37
REMARK   18  A    between atoms: _40  and  _42
REMARK   19  A    between atoms: _42  and  _43
REMARK   20  A    between atoms: _42  and  _45
REMARK   21  A    between atoms: _45  and  _46
REMARK   22  A    between atoms: _49  and  _51
REMARK   23  A    between atoms: _51  and  _52
REMARK   24  A    between atoms: _51  and  _54
REMARK   25  A    between atoms: _54  and  _55
REMARK   26  A    between atoms: _58  and  _60
REMARK   27  A    between atoms: _60  and  _61
REMARK   28  A    between atoms: _60  and  _63
REMARK   29  A    between atoms: _63  and  _64
REMARK   30  A    between atoms: _67  and  _69
REMARK   31  A    between atoms: _69  and  _70
REMARK   32  A    between atoms: _72  and  _74
REMARK   33  A    between atoms: _74  and  _75
REMARK   34  A    between atoms: _78  and  _80
REMARK   35  A    between atoms: _80  and  _81
REMARK   36  A    between atoms: _80  and  _83
REMARK   37  A    between atoms: _83  and  _84
REMARK   38  A    between atoms: _87  and  _89
REMARK   39  A    between atoms: _89  and  _90
REMARK   40  A    between atoms: _89  and  _92
REMARK   41  A    between atoms: _92  and  _93
REMARK   42  A    between atoms: _96  and  _98
REMARK   43  A    between atoms: _98  and  _99
REMARK   44  A    between atoms: _98  and  _101
REMARK   45  A    between atoms: _101  and  _102
REMARK   46  A    between atoms: _105  and  _107
REMARK   47  A    between atoms: _107  and  _108
REMARK   48  A    between atoms: _107  and  _110
REMARK   49  A    between atoms: _113  and  _115
REMARK   50  A    between atoms: _115  and  _116
REMARK   51  A    between atoms: _115  and  _118
REMARK   52  A    between atoms: _118  and  _119
REMARK   53  A    between atoms: _119  and  _120
REMARK   54  A    between atoms: _120  and  _121
REMARK   55  A    between atoms: _121  and  _122
REMARK   56  A    between atoms: _126  and  _128
REMARK   57  A    between atoms: _128  and  _129
REMARK   58  A    between atoms: _128  and  _131
REMARK   59  A    between atoms: _131  and  _132
REMARK   60  A    between atoms: _132  and  _133
REMARK   61  A    between atoms: _135  and  _137
REMARK   62  A    between atoms: _137  and  _138
REMARK   63  A    between atoms: _137  and  _140
REMARK   64  A    between atoms: _140  and  _141
REMARK   65  A    between atoms: _144  and  _146
REMARK   66  A    between atoms: _146  and  _147
REMARK   67  A    between atoms: _149  and  _151
REMARK   68  A    between atoms: _151  and  _152
REMARK   69  A    between atoms: _154  and  _156
REMARK   70  A    between atoms: _156  and  _157
REMARK   71  A    between atoms: _156  and  _159
REMARK   72  A    between atoms: _159  and  _160
REMARK   73  A    between atoms: _163  and  _165
REMARK   74  A    between atoms: _165  and  _166
REMARK   75  A    between atoms: _168  and  _170
REMARK   76  A    between atoms: _170  and  _171
REMARK   77  A    between atoms: _173  and  _175
REMARK   78  A    between atoms: _175  and  _176
REMARK   79  A    between atoms: _175  and  _178
REMARK   80  A    between atoms: _178  and  _179
REMARK   81  A    between atoms: _185  and  _187
REMARK   82  A    between atoms: _187  and  _188
REMARK   83  A    between atoms: _187  and  _190
REMARK   84  A    between atoms: _190  and  _191
REMARK   85  A    between atoms: _194  and  _196
REMARK   86  A    between atoms: _196  and  _197
REMARK   87  A    between atoms: _196  and  _199
REMARK   88  A    between atoms: _202  and  _204
REMARK   89  A    between atoms: _204  and  _205
REMARK   90  A    between atoms: _204  and  _207
REMARK   91  A    between atoms: _207  and  _208
REMARK   92  A    between atoms: _208  and  _209
REMARK   93  A    between atoms: _214  and  _216
REMARK   94  A    between atoms: _216  and  _217
REMARK   95  A    between atoms: _216  and  _219
REMARK   96  A    between atoms: _219  and  _220
REMARK   97  A    between atoms: _224  and  _225
REMARK   98  A    between atoms: _230  and  _232
REMARK   99  A    between atoms: _232  and  _233
REMARK  100  A    between atoms: _232  and  _235
REMARK  101  A    between atoms: _235  and  _236
REMARK  102  A    between atoms: _240  and  _241
REMARK  103  A    between atoms: _246  and  _248
REMARK  104  A    between atoms: _248  and  _249
REMARK  105  A    between atoms: _248  and  _251
REMARK  106  A    between atoms: _254  and  _256
REMARK  107  A    between atoms: _256  and  _257
REMARK  108  A    between atoms: _256  and  _259
REMARK  109  A    between atoms: _259  and  _260
REMARK  110  A    between atoms: _265  and  _267
REMARK  111  A    between atoms: _267  and  _268
REMARK  112  A    between atoms: _267  and  _270
REMARK  113  A    between atoms: _270  and  _271
REMARK  114  A    between atoms: _274  and  _276
REMARK  115  A    between atoms: _276  and  _277
REMARK  116  A    between atoms: _276  and  _279
REMARK  117  A    between atoms: _279  and  _280
REMARK  118  A    between atoms: _283  and  _285
REMARK  119  A    between atoms: _285  and  _286
REMARK  120  A    between atoms: _288  and  _290
REMARK  121  A    between atoms: _290  and  _291
REMARK  122  A    between atoms: _290  and  _293
REMARK  123  A    between atoms: _293  and  _294
REMARK  124  A    between atoms: _294  and  _295
REMARK  125  A    between atoms: _295  and  _296
REMARK  126  A    between atoms: _305  and  _307
REMARK  127  A    between atoms: _307  and  _308
REMARK  128  A    between atoms: _307  and  _310
REMARK  129  A    between atoms: _310  and  _311
REMARK  130  A    between atoms: _316  and  _318
REMARK  131  A    between atoms: _318  and  _319
REMARK  132  A    between atoms: _318  and  _321
REMARK  133  A    between atoms: _321  and  _322
REMARK  134  A    between atoms: _322  and  _323
REMARK  135  A    between atoms: _323  and  _324
REMARK  136  A    between atoms: _324  and  _325
REMARK  137  A    between atoms: _329  and  _331
REMARK  138  A    between atoms: _331  and  _332
REMARK  139  A    between atoms: _331  and  _334
REMARK  140  A    between atoms: _334  and  _335
REMARK  141  A    between atoms: _335  and  _336
REMARK  142  A    between atoms: _336  and  _337
REMARK  143  A    between atoms: _346  and  _348
REMARK  144  A    between atoms: _348  and  _349
REMARK  145  A    between atoms: _348  and  _351
REMARK  146  A    between atoms: _351  and  _352
REMARK  147  A    between atoms: _355  and  _357
REMARK  148  A    between atoms: _357  and  _358
REMARK  149  A    between atoms: _357  and  _360
REMARK  150  A    between atoms: _360  and  _361
REMARK  151  A    between atoms: _364  and  _366
REMARK  152  A    between atoms: _366  and  _367
REMARK  153  A    between atoms: _366  and  _369
REMARK  154  A    between atoms: _369  and  _370
REMARK  155  A    between atoms: _373  and  _375
REMARK  156  A    between atoms: _375  and  _376
REMARK  157  A    between atoms: _375  and  _378
REMARK  158  A    between atoms: _378  and  _379
REMARK  159  A    between atoms: _382  and  _384
REMARK  160  A    between atoms: _384  and  _385
REMARK  161  A    between atoms: _387  and  _389
REMARK  162  A    between atoms: _389  and  _390
REMARK  163  A    between atoms: _393  and  _395
REMARK  164  A    between atoms: _395  and  _396
REMARK  165  A    between atoms: _395  and  _398
REMARK  166  A    between atoms: _398  and  _399
REMARK  167  A    between atoms: _402  and  _404
REMARK  168  A    between atoms: _404  and  _405
REMARK  169  A    between atoms: _404  and  _407
REMARK  170  A    between atoms: _407  and  _408
REMARK  171  A    between atoms: _411  and  _413
REMARK  172  A    between atoms: _413  and  _414
REMARK  173  A    between atoms: _413  and  _416
REMARK  174  A    between atoms: _416  and  _417
REMARK  175  A    between atoms: _420  and  _422
REMARK  176  A    between atoms: _422  and  _423
REMARK  177  A    between atoms: _422  and  _425
REMARK  178  A    between atoms: _428  and  _430
REMARK  179  A    between atoms: _430  and  _431
REMARK  180  A    between atoms: _430  and  _433
REMARK  181  A    between atoms: _433  and  _434
REMARK  182  A    between atoms: _434  and  _435
REMARK  183  A    between atoms: _435  and  _436
REMARK  184  A    between atoms: _436  and  _437
REMARK  185  A    between atoms: _441  and  _443
REMARK  186  A    between atoms: _443  and  _444
REMARK  187  A    between atoms: _443  and  _446
REMARK  188  A    between atoms: _446  and  _447
REMARK  189  A    between atoms: _447  and  _448
REMARK  190  A    between atoms: _450  and  _452
REMARK  191  A    between atoms: _452  and  _453
REMARK  192  A    between atoms: _452  and  _455
REMARK  193  A    between atoms: _455  and  _456
REMARK  194  A    between atoms: _459  and  _461
REMARK  195  A    between atoms: _461  and  _462
REMARK  196  A    between atoms: _464  and  _466
REMARK  197  A    between atoms: _466  and  _467
REMARK  198  A    between atoms: _469  and  _471
REMARK  199  A    between atoms: _471  and  _472
REMARK  200  A    between atoms: _471  and  _474
REMARK  201  A    between atoms: _474  and  _475
REMARK  202  A    between atoms: _478  and  _480
REMARK  203  A    between atoms: _480  and  _481
REMARK  204  A    between atoms: _483  and  _485
REMARK  205  A    between atoms: _485  and  _486
REMARK  206  A    between atoms: _488  and  _490
REMARK  207  A    between atoms: _490  and  _491
REMARK  208  A    between atoms: _490  and  _493
REMARK  209  A    between atoms: _493  and  _494
REMARK  210  A    between atoms: _500  and  _502
REMARK  211  A    between atoms: _502  and  _503
REMARK  212  A    between atoms: _502  and  _505
REMARK  213  A    between atoms: _505  and  _506
REMARK  214  A    between atoms: _509  and  _511
REMARK  215  A    between atoms: _511  and  _512
REMARK  216  A    between atoms: _511  and  _514
REMARK  217  A    between atoms: _517  and  _519
REMARK  218  A    between atoms: _519  and  _520
REMARK  219  A    between atoms: _519  and  _522
REMARK  220  A    between atoms: _522  and  _523
REMARK  221  A    between atoms: _523  and  _524
REMARK  222  A    between atoms: _529  and  _531
REMARK  223  A    between atoms: _531  and  _532
REMARK  224  A    between atoms: _531  and  _534
REMARK  225  A    between atoms: _534  and  _535
REMARK  226  A    between atoms: _539  and  _540
REMARK  227  A    between atoms: _545  and  _547
REMARK  228  A    between atoms: _547  and  _548
REMARK  229  A    between atoms: _547  and  _550
REMARK  230  A    between atoms: _550  and  _551
REMARK  231  A    between atoms: _555  and  _556
REMARK  232  A    between atoms: _561  and  _563
REMARK  233  A    between atoms: _563  and  _564
REMARK  234  A    between atoms: _563  and  _566
REMARK  235  A    between atoms: _569  and  _571
REMARK  236  A    between atoms: _571  and  _572
REMARK  237  A    between atoms: _571  and  _574
REMARK  238  A    between atoms: _574  and  _575
REMARK  239  A    between atoms: _580  and  _582
REMARK  240  A    between atoms: _582  and  _583
REMARK  241  A    between atoms: _582  and  _585
REMARK  242  A    between atoms: _585  and  _586
REMARK  243  A    between atoms: _589  and  _591
REMARK  244  A    between atoms: _591  and  _592
REMARK  245  A    between atoms: _591  and  _594
REMARK  246  A    between atoms: _594  and  _595
REMARK  247  A    between atoms: _598  and  _600
REMARK  248  A    between atoms: _600  and  _601
REMARK  249  A    between atoms: _603  and  _605
REMARK  250  A    between atoms: _605  and  _606
REMARK  251  A    between atoms: _605  and  _608
REMARK  252  A    between atoms: _608  and  _609
REMARK  253  A    between atoms: _609  and  _610
REMARK  254  A    between atoms: _610  and  _611
REMARK                            x       y       z     vdW  Elec       q    Type
REMARK                         _______ _______ _______ _____ _____    ______ ____
ROOT
ATOM      1  O   HOH     1     -16.129 -18.113   9.285  0.00  0.00    +0.000 OA
ENDROOT
TORSDOF 0
REMARK  Name = ../refined-set-2016/2p3c/2p3c_pocket.pdb
REMARK  254 active torsions:
REMARK  status: ('A' for Active; 'I' for Inactive)
REMARK    1  A    between atoms: _1  and  _3
REMARK    2  A    between atoms: _3  and  _4
REMARK    3  A    between atoms: _3  and  _6
REMARK    4  A    between atoms: _6  and  _7
REMARK    5  A    between atoms: _7  and  _8
REMARK    6  A    between atoms: _8  and  _9
REMARK    7  A    between atoms: _9  and  _10
REMARK    8  A    between atoms: _14  and  _16
REMARK    9  A    between atoms: _16  and  _17
REMARK   10  A    between atoms: _16  and  _19
REMARK   11  A    between atoms: _19  and  _20
REMARK   12  A    between atoms: _20  and  _21
REMARK   13  A    between atoms: _21  and  _22
REMARK   14  A    between atoms: _31  and  _33
REMARK   15  A    between atoms: _33  and  _34
REMARK   16  A    between atoms: _33  and  _36
REMARK   17  A    between atoms: _36  and  _37
REMARK   18  A    between atoms: _40  and  _42
REMARK   19  A    between atoms: _42  and  _43
REMARK   20  A    between atoms: _42  and  _45
REMARK   21  A    between atoms: _45  and  _46
REMARK   22  A    between atoms: _49  and  _51
REMARK   23  A    between atoms: _51  and  _52
REMARK   24  A    between atoms: _51  and  _54
REMARK   25  A    between atoms: _54  and  _55
REMARK   26  A    between atoms: _58  and  _60
REMARK   27  A    between atoms: _60  and  _61
REMARK   28  A    between atoms: _60  and  _63
REMARK   29  A    between atoms: _63  and  _64
REMARK   30  A    between atoms: _67  and  _69
REMARK   31  A    between atoms: _69  and  _70
REMARK   32  A    between atoms: _72  and  _74
REMARK   33  A    between atoms: _74  and  _75
REMARK   34  A    between atoms: _78  and  _80
REMARK   35  A    between atoms: _80  and  _81
REMARK   36  A    between atoms: _80  and  _83
REMARK   37  A    between atoms: _83  and  _84
REMARK   38  A    between atoms: _87  and  _89
REMARK   39  A    between atoms: _89  and  _90
REMARK   40  A    between atoms: _89  and  _92
REMARK   41  A    between atoms: _92  and  _93
REMARK   42  A    between atoms: _96  and  _98
REMARK   43  A    between atoms: _98  and  _99
REMARK   44  A    between atoms: _98  and  _101
REMARK   45  A    between atoms: _101  and  _102
REMARK   46  A    between atoms: _105  and  _107
REMARK   47  A    between atoms: _107  and  _108
REMARK   48  A    between atoms: _107  and  _110
REMARK   49  A    between atoms: _113  and  _115
REMARK   50  A    between atoms: _115  and  _116
REMARK   51  A    between atoms: _115  and  _118
REMARK   52  A    between atoms: _118  and  _119
REMARK   53  A    between atoms: _119  and  _120
REMARK   54  A    between atoms: _120  and  _121
REMARK   55  A    between atoms: _121  and  _122
REMARK   56  A    between atoms: _126  and  _128
REMARK   57  A    between atoms: _128  and  _129
REMARK   58  A    between atoms: _128  and  _131
REMARK   59  A    between atoms: _131  and  _132
REMARK   60  A    between atoms: _132  and  _133
REMARK   61  A    between atoms: _135  and  _137
REMARK   62  A    between atoms: _137  and  _138
REMARK   63  A    between atoms: _137  and  _140
REMARK   64  A    between atoms: _140  and  _141
REMARK   65  A    between atoms: _144  and  _146
REMARK   66  A    between atoms: _146  and  _147
REMARK   67  A    between atoms: _149  and  _151
REMARK   68  A    between atoms: _151  and  _152
REMARK   69  A    between atoms: _154  and  _156
REMARK   70  A    between atoms: _156  and  _157
REMARK   71  A    between atoms: _156  and  _159
REMARK   72  A    between atoms: _159  and  _160
REMARK   73  A    between atoms: _163  and  _165
REMARK   74  A    between atoms: _165  and  _166
REMARK   75  A    between atoms: _168  and  _170
REMARK   76  A    between atoms: _170  and  _171
REMARK   77  A    between atoms: _173  and  _175
REMARK   78  A    between atoms: _175  and  _176
REMARK   79  A    between atoms: _175  and  _178
REMARK   80  A    between atoms: _178  and  _179
REMARK   81  A    between atoms: _185  and  _187
REMARK   82  A    between atoms: _187  and  _188
REMARK   83  A    between atoms: _187  and  _190
REMARK   84  A    between atoms: _190  and  _191
REMARK   85  A    between atoms: _194  and  _196
REMARK   86  A    between atoms: _196  and  _197
REMARK   87  A    between atoms: _196  and  _199
REMARK   88  A    between atoms: _202  and  _204
REMARK   89  A    between atoms: _204  and  _205
REMARK   90  A    between atoms: _204  and  _207
REMARK   91  A    between atoms: _207  and  _208
REMARK   92  A    between atoms: _208  and  _209
REMARK   93  A    between atoms: _214  and  _216
REMARK   94  A    between atoms: _216  and  _217
REMARK   95  A    between atoms: _216  and  _219
REMARK   96  A    between atoms: _219  and  _220
REMARK   97  A    between atoms: _224  and  _225
REMARK   98  A    between atoms: _230  and  _232
REMARK   99  A    between atoms: _232  and  _233
REMARK  100  A    between atoms: _232  and  _235
REMARK  101  A    between atoms: _235  and  _236
REMARK  102  A    between atoms: _240  and  _241
REMARK  103  A    between atoms: _246  and  _248
REMARK  104  A    between atoms: _248  and  _249
REMARK  105  A    between atoms: _248  and  _251
REMARK  106  A    between atoms: _254  and  _256
REMARK  107  A    between atoms: _256  and  _257
REMARK  108  A    between atoms: _256  and  _259
REMARK  109  A    between atoms: _259  and  _260
REMARK  110  A    between atoms: _265  and  _267
REMARK  111  A    between atoms: _267  and  _268
REMARK  112  A    between atoms: _267  and  _270
REMARK  113  A    between atoms: _270  and  _271
REMARK  114  A    between atoms: _274  and  _276
REMARK  115  A    between atoms: _276  and  _277
REMARK  116  A    between atoms: _276  and  _279
REMARK  117  A    between atoms: _279  and  _280
REMARK  118  A    between atoms: _283  and  _285
REMARK  119  A    between atoms: _285  and  _286
REMARK  120  A    between atoms: _288  and  _290
REMARK  121  A    between atoms: _290  and  _291
REMARK  122  A    between atoms: _290  and  _293
REMARK  123  A    between atoms: _293  and  _294
REMARK  124  A    between atoms: _294  and  _295
REMARK  125  A    between atoms: _295  and  _296
REMARK  126  A    between atoms: _305  and  _307
REMARK  127  A    between atoms: _307  and  _308
REMARK  128  A    between atoms: _307  and  _310
REMARK  129  A    between atoms: _310  and  _311
REMARK  130  A    between atoms: _316  and  _318
REMARK  131  A    between atoms: _318  and  _319
REMARK  132  A    between atoms: _318  and  _321
REMARK  133  A    between atoms: _321  and  _322
REMARK  134  A    between atoms: _322  and  _323
REMARK  135  A    between atoms: _323  and  _324
REMARK  136  A    between atoms: _324  and  _325
REMARK  137  A    between atoms: _329  and  _331
REMARK  138  A    between atoms: _331  and  _332
REMARK  139  A    between atoms: _331  and  _334
REMARK  140  A    between atoms: _334  and  _335
REMARK  141  A    between atoms: _335  and  _336
REMARK  142  A    between atoms: _336  and  _337
REMARK  143  A    between atoms: _346  and  _348
REMARK  144  A    between atoms: _348  and  _349
REMARK  145  A    between atoms: _348  and  _351
REMARK  146  A    between atoms: _351  and  _352
REMARK  147  A    between atoms: _355  and  _357
REMARK  148  A    between atoms: _357  and  _358
REMARK  149  A    between atoms: _357  and  _360
REMARK  150  A    between atoms: _360  and  _361
REMARK  151  A    between atoms: _364  and  _366
REMARK  152  A    between atoms: _366  and  _367
REMARK  153  A    between atoms: _366  and  _369
REMARK  154  A    between atoms: _369  and  _370
REMARK  155  A    between atoms: _373  and  _375
REMARK  156  A    between atoms: _375  and  _376
REMARK  157  A    between atoms: _375  and  _378
REMARK  158  A    between atoms: _378  and  _379
REMARK  159  A    between atoms: _382  and  _384
REMARK  160  A    between atoms: _384  and  _385
REMARK  161  A    between atoms: _387  and  _389
REMARK  162  A    between atoms: _389  and  _390
REMARK  163  A    between atoms: _393  and  _395
REMARK  164  A    between atoms: _395  and  _396
REMARK  165  A    between atoms: _395  and  _398
REMARK  166  A    between atoms: _398  and  _399
REMARK  167  A    between atoms: _402  and  _404
REMARK  168  A    between atoms: _404  and  _405
REMARK  169  A    between atoms: _404  and  _407
REMARK  170  A    between atoms: _407  and  _408
REMARK  171  A    between atoms: _411  and  _413
REMARK  172  A    between atoms: _413  and  _414
REMARK  173  A    between atoms: _413  and  _416
REMARK  174  A    between atoms: _416  and  _417
REMARK  175  A    between atoms: _420  and  _422
REMARK  176  A    between atoms: _422  and  _423
REMARK  177  A    between atoms: _422  and  _425
REMARK  178  A    between atoms: _428  and  _430
REMARK  179  A    between atoms: _430  and  _431
REMARK  180  A    between atoms: _430  and  _433
REMARK  181  A    between atoms: _433  and  _434
REMARK  182  A    between atoms: _434  and  _435
REMARK  183  A    between atoms: _435  and  _436
REMARK  184  A    between atoms: _436  and  _437
REMARK  185  A    between atoms: _441  and  _443
REMARK  186  A    between atoms: _443  and  _444
REMARK  187  A    between atoms: _443  and  _446
REMARK  188  A    between atoms: _446  and  _447
REMARK  189  A    between atoms: _447  and  _448
REMARK  190  A    between atoms: _450  and  _452
REMARK  191  A    between atoms: _452  and  _453
REMARK  192  A    between atoms: _452  and  _455
REMARK  193  A    between atoms: _455  and  _456
REMARK  194  A    between atoms: _459  and  _461
REMARK  195  A    between atoms: _461  and  _462
REMARK  196  A    between atoms: _464  and  _466
REMARK  197  A    between atoms: _466  and  _467
REMARK  198  A    between atoms: _469  and  _471
REMARK  199  A    between atoms: _471  and  _472
REMARK  200  A    between atoms: _471  and  _474
REMARK  201  A    between atoms: _474  and  _475
REMARK  202  A    between atoms: _478  and  _480
REMARK  203  A    between atoms: _480  and  _481
REMARK  204  A    between atoms: _483  and  _485
REMARK  205  A    between atoms: _485  and  _486
REMARK  206  A    between atoms: _488  and  _490
REMARK  207  A    between atoms: _490  and  _491
REMARK  208  A    between atoms: _490  and  _493
REMARK  209  A    between atoms: _493  and  _494
REMARK  210  A    between atoms: _500  and  _502
REMARK  211  A    between atoms: _502  and  _503
REMARK  212  A    between atoms: _502  and  _505
REMARK  213  A    between atoms: _505  and  _506
REMARK  214  A    between atoms: _509  and  _511
REMARK  215  A    between atoms: _511  and  _512
REMARK  216  A    between atoms: _511  and  _514
REMARK  217  A    between atoms: _517  and  _519
REMARK  218  A    between atoms: _519  and  _520
REMARK  219  A    between atoms: _519  and  _522
REMARK  220  A    between atoms: _522  and  _523
REMARK  221  A    between atoms: _523  and  _524
REMARK  222  A    between atoms: _529  and  _531
REMARK  223  A    between atoms: _531  and  _532
REMARK  224  A    between atoms: _531  and  _534
REMARK  225  A    between atoms: _534  and  _535
REMARK  226  A    between atoms: _539  and  _540
REMARK  227  A    between atoms: _545  and  _547
REMARK  228  A    between atoms: _547  and  _548
REMARK  229  A    between atoms: _547  and  _550
REMARK  230  A    between atoms: _550  and  _551
REMARK  231  A    between atoms: _555  and  _556
REMARK  232  A    between atoms: _561  and  _563
REMARK  233  A    between atoms: _563  and  _564
REMARK  234  A    between atoms: _563  and  _566
REMARK  235  A    between atoms: _569  and  _571
REMARK  236  A    between atoms: _571  and  _572
REMARK  237  A    between atoms: _571  and  _574
REMARK  238  A    between atoms: _574  and  _575
REMARK  239  A    between atoms: _580  and  _582
REMARK  240  A    between atoms: _582  and  _583
REMARK  241  A    between atoms: _582  and  _585
REMARK  242  A    between atoms: _585  and  _586
REMARK  243  A    between atoms: _589  and  _591
REMARK  244  A    between atoms: _591  and  _592
REMARK  245  A    between atoms: _591  and  _594
REMARK  246  A    between atoms: _594  and  _595
REMARK  247  A    between atoms: _598  and  _600
REMARK  248  A    between atoms: _600  and  _601
REMARK  249  A    between atoms: _603  and  _605
REMARK  250  A    between atoms: _605  and  _606
REMARK  251  A    between atoms: _605  and  _608
REMARK  252  A    between atoms: _608  and  _609
REMARK  253  A    between atoms: _609  and  _610
REMARK  254  A    between atoms: _610  and  _611
REMARK                            x       y       z     vdW  Elec       q    Type
REMARK                         _______ _______ _______ _____ _____    ______ ____
ROOT
ATOM      1  O   HOH     1      -8.381 -18.413   0.604  0.00  0.00    +0.000 OA
ENDROOT
TORSDOF 0
REMARK  Name = ../refined-set-2016/2p3c/2p3c_pocket.pdb
REMARK  254 active torsions:
REMARK  status: ('A' for Active; 'I' for Inactive)
REMARK    1  A    between atoms: _1  and  _3
REMARK    2  A    between atoms: _3  and  _4
REMARK    3  A    between atoms: _3  and  _6
REMARK    4  A    between atoms: _6  and  _7
REMARK    5  A    between atoms: _7  and  _8
REMARK    6  A    between atoms: _8  and  _9
REMARK    7  A    between atoms: _9  and  _10
REMARK    8  A    between atoms: _14  and  _16
REMARK    9  A    between atoms: _16  and  _17
REMARK   10  A    between atoms: _16  and  _19
REMARK   11  A    between atoms: _19  and  _20
REMARK   12  A    between atoms: _20  and  _21
REMARK   13  A    between atoms: _21  and  _22
REMARK   14  A    between atoms: _31  and  _33
REMARK   15  A    between atoms: _33  and  _34
REMARK   16  A    between atoms: _33  and  _36
REMARK   17  A    between atoms: _36  and  _37
REMARK   18  A    between atoms: _40  and  _42
REMARK   19  A    between atoms: _42  and  _43
REMARK   20  A    between atoms: _42  and  _45
REMARK   21  A    between atoms: _45  and  _46
REMARK   22  A    between atoms: _49  and  _51
REMARK   23  A    between atoms: _51  and  _52
REMARK   24  A    between atoms: _51  and  _54
REMARK   25  A    between atoms: _54  and  _55
REMARK   26  A    between atoms: _58  and  _60
REMARK   27  A    between atoms: _60  and  _61
REMARK   28  A    between atoms: _60  and  _63
REMARK   29  A    between atoms: _63  and  _64
REMARK   30  A    between atoms: _67  and  _69
REMARK   31  A    between atoms: _69  and  _70
REMARK   32  A    between atoms: _72  and  _74
REMARK   33  A    between atoms: _74  and  _75
REMARK   34  A    between atoms: _78  and  _80
REMARK   35  A    between atoms: _80  and  _81
REMARK   36  A    between atoms: _80  and  _83
REMARK   37  A    between atoms: _83  and  _84
REMARK   38  A    between atoms: _87  and  _89
REMARK   39  A    between atoms: _89  and  _90
REMARK   40  A    between atoms: _89  and  _92
REMARK   41  A    between atoms: _92  and  _93
REMARK   42  A    between atoms: _96  and  _98
REMARK   43  A    between atoms: _98  and  _99
REMARK   44  A    between atoms: _98  and  _101
REMARK   45  A    between atoms: _101  and  _102
REMARK   46  A    between atoms: _105  and  _107
REMARK   47  A    between atoms: _107  and  _108
REMARK   48  A    between atoms: _107  and  _110
REMARK   49  A    between atoms: _113  and  _115
REMARK   50  A    between atoms: _115  and  _116
REMARK   51  A    between atoms: _115  and  _118
REMARK   52  A    between atoms: _118  and  _119
REMARK   53  A    between atoms: _119  and  _120
REMARK   54  A    between atoms: _120  and  _121
REMARK   55  A    between atoms: _121  and  _122
REMARK   56  A    between atoms: _126  and  _128
REMARK   57  A    between atoms: _128  and  _129
REMARK   58  A    between atoms: _128  and  _131
REMARK   59  A    between atoms: _131  and  _132
REMARK   60  A    between atoms: _132  and  _133
REMARK   61  A    between atoms: _135  and  _137
REMARK   62  A    between atoms: _137  and  _138
REMARK   63  A    between atoms: _137  and  _140
REMARK   64  A    between atoms: _140  and  _141
REMARK   65  A    between atoms: _144  and  _146
REMARK   66  A    between atoms: _146  and  _147
REMARK   67  A    between atoms: _149  and  _151
REMARK   68  A    between atoms: _151  and  _152
REMARK   69  A    between atoms: _154  and  _156
REMARK   70  A    between atoms: _156  and  _157
REMARK   71  A    between atoms: _156  and  _159
REMARK   72  A    between atoms: _159  and  _160
REMARK   73  A    between atoms: _163  and  _165
REMARK   74  A    between atoms: _165  and  _166
REMARK   75  A    between atoms: _168  and  _170
REMARK   76  A    between atoms: _170  and  _171
REMARK   77  A    between atoms: _173  and  _175
REMARK   78  A    between atoms: _175  and  _176
REMARK   79  A    between atoms: _175  and  _178
REMARK   80  A    between atoms: _178  and  _179
REMARK   81  A    between atoms: _185  and  _187
REMARK   82  A    between atoms: _187  and  _188
REMARK   83  A    between atoms: _187  and  _190
REMARK   84  A    between atoms: _190  and  _191
REMARK   85  A    between atoms: _194  and  _196
REMARK   86  A    between atoms: _196  and  _197
REMARK   87  A    between atoms: _196  and  _199
REMARK   88  A    between atoms: _202  and  _204
REMARK   89  A    between atoms: _204  and  _205
REMARK   90  A    between atoms: _204  and  _207
REMARK   91  A    between atoms: _207  and  _208
REMARK   92  A    between atoms: _208  and  _209
REMARK   93  A    between atoms: _214  and  _216
REMARK   94  A    between atoms: _216  and  _217
REMARK   95  A    between atoms: _216  and  _219
REMARK   96  A    between atoms: _219  and  _220
REMARK   97  A    between atoms: _224  and  _225
REMARK   98  A    between atoms: _230  and  _232
REMARK   99  A    between atoms: _232  and  _233
REMARK  100  A    between atoms: _232  and  _235
REMARK  101  A    between atoms: _235  and  _236
REMARK  102  A    between atoms: _240  and  _241
REMARK  103  A    between atoms: _246  and  _248
REMARK  104  A    between atoms: _248  and  _249
REMARK  105  A    between atoms: _248  and  _251
REMARK  106  A    between atoms: _254  and  _256
REMARK  107  A    between atoms: _256  and  _257
REMARK  108  A    between atoms: _256  and  _259
REMARK  109  A    between atoms: _259  and  _260
REMARK  110  A    between atoms: _265  and  _267
REMARK  111  A    between atoms: _267  and  _268
REMARK  112  A    between atoms: _267  and  _270
REMARK  113  A    between atoms: _270  and  _271
REMARK  114  A    between atoms: _274  and  _276
REMARK  115  A    between atoms: _276  and  _277
REMARK  116  A    between atoms: _276  and  _279
REMARK  117  A    between atoms: _279  and  _280
REMARK  118  A    between atoms: _283  and  _285
REMARK  119  A    between atoms: _285  and  _286
REMARK  120  A    between atoms: _288  and  _290
REMARK  121  A    between atoms: _290  and  _291
REMARK  122  A    between atoms: _290  and  _293
REMARK  123  A    between atoms: _293  and  _294
REMARK  124  A    between atoms: _294  and  _295
REMARK  125  A    between atoms: _295  and  _296
REMARK  126  A    between atoms: _305  and  _307
REMARK  127  A    between atoms: _307  and  _308
REMARK  128  A    between atoms: _307  and  _310
REMARK  129  A    between atoms: _310  and  _311
REMARK  130  A    between atoms: _316  and  _318
REMARK  131  A    between atoms: _318  and  _319
REMARK  132  A    between atoms: _318  and  _321
REMARK  133  A    between atoms: _321  and  _322
REMARK  134  A    between atoms: _322  and  _323
REMARK  135  A    between atoms: _323  and  _324
REMARK  136  A    between atoms: _324  and  _325
REMARK  137  A    between atoms: _329  and  _331
REMARK  138  A    between atoms: _331  and  _332
REMARK  139  A    between atoms: _331  and  _334
REMARK  140  A    between atoms: _334  and  _335
REMARK  141  A    between atoms: _335  and  _336
REMARK  142  A    between atoms: _336  and  _337
REMARK  143  A    between atoms: _346  and  _348
REMARK  144  A    between atoms: _348  and  _349
REMARK  145  A    between atoms: _348  and  _351
REMARK  146  A    between atoms: _351  and  _352
REMARK  147  A    between atoms: _355  and  _357
REMARK  148  A    between atoms: _357  and  _358
REMARK  149  A    between atoms: _357  and  _360
REMARK  150  A    between atoms: _360  and  _361
REMARK  151  A    between atoms: _364  and  _366
REMARK  152  A    between atoms: _366  and  _367
REMARK  153  A    between atoms: _366  and  _369
REMARK  154  A    between atoms: _369  and  _370
REMARK  155  A    between atoms: _373  and  _375
REMARK  156  A    between atoms: _375  and  _376
REMARK  157  A    between atoms: _375  and  _378
REMARK  158  A    between atoms: _378  and  _379
REMARK  159  A    between atoms: _382  and  _384
REMARK  160  A    between atoms: _384  and  _385
REMARK  161  A    between atoms: _387  and  _389
REMARK  162  A    between atoms: _389  and  _390
REMARK  163  A    between atoms: _393  and  _395
REMARK  164  A    between atoms: _395  and  _396
REMARK  165  A    between atoms: _395  and  _398
REMARK  166  A    between atoms: _398  and  _399
REMARK  167  A    between atoms: _402  and  _404
REMARK  168  A    between atoms: _404  and  _405
REMARK  169  A    between atoms: _404  and  _407
REMARK  170  A    between atoms: _407  and  _408
REMARK  171  A    between atoms: _411  and  _413
REMARK  172  A    between atoms: _413  and  _414
REMARK  173  A    between atoms: _413  and  _416
REMARK  174  A    between atoms: _416  and  _417
REMARK  175  A    between atoms: _420  and  _422
REMARK  176  A    between atoms: _422  and  _423
REMARK  177  A    between atoms: _422  and  _425
REMARK  178  A    between atoms: _428  and  _430
REMARK  179  A    between atoms: _430  and  _431
REMARK  180  A    between atoms: _430  and  _433
REMARK  181  A    between atoms: _433  and  _434
REMARK  182  A    between atoms: _434  and  _435
REMARK  183  A    between atoms: _435  and  _436
REMARK  184  A    between atoms: _436  and  _437
REMARK  185  A    between atoms: _441  and  _443
REMARK  186  A    between atoms: _443  and  _444
REMARK  187  A    between atoms: _443  and  _446
REMARK  188  A    between atoms: _446  and  _447
REMARK  189  A    between atoms: _447  and  _448
REMARK  190  A    between atoms: _450  and  _452
REMARK  191  A    between atoms: _452  and  _453
REMARK  192  A    between atoms: _452  and  _455
REMARK  193  A    between atoms: _455  and  _456
REMARK  194  A    between atoms: _459  and  _461
REMARK  195  A    between atoms: _461  and  _462
REMARK  196  A    between atoms: _464  and  _466
REMARK  197  A    between atoms: _466  and  _467
REMARK  198  A    between atoms: _469  and  _471
REMARK  199  A    between atoms: _471  and  _472
REMARK  200  A    between atoms: _471  and  _474
REMARK  201  A    between atoms: _474  and  _475
REMARK  202  A    between atoms: _478  and  _480
REMARK  203  A    between atoms: _480  and  _481
REMARK  204  A    between atoms: _483  and  _485
REMARK  205  A    between atoms: _485  and  _486
REMARK  206  A    between atoms: _488  and  _490
REMARK  207  A    between atoms: _490  and  _491
REMARK  208  A    between atoms: _490  and  _493
REMARK  209  A    between atoms: _493  and  _494
REMARK  210  A    between atoms: _500  and  _502
REMARK  211  A    between atoms: _502  and  _503
REMARK  212  A    between atoms: _502  and  _505
REMARK  213  A    between atoms: _505  and  _506
REMARK  214  A    between atoms: _509  and  _511
REMARK  215  A    between atoms: _511  and  _512
REMARK  216  A    between atoms: _511  and  _514
REMARK  217  A    between atoms: _517  and  _519
REMARK  218  A    between atoms: _519  and  _520
REMARK  219  A    between atoms: _519  and  _522
REMARK  220  A    between atoms: _522  and  _523
REMARK  221  A    between atoms: _523  and  _524
REMARK  222  A    between atoms: _529  and  _531
REMARK  223  A    between atoms: _531  and  _532
REMARK  224  A    between atoms: _531  and  _534
REMARK  225  A    between atoms: _534  and  _535
REMARK  226  A    between atoms: _539  and  _540
REMARK  227  A    between atoms: _545  and  _547
REMARK  228  A    between atoms: _547  and  _548
REMARK  229  A    between atoms: _547  and  _550
REMARK  230  A    between atoms: _550  and  _551
REMARK  231  A    between atoms: _555  and  _556
REMARK  232  A    between atoms: _561  and  _563
REMARK  233  A    between atoms: _563  and  _564
REMARK  234  A    between atoms: _563  and  _566
REMARK  235  A    between atoms: _569  and  _571
REMARK  236  A    between atoms: _571  and  _572
REMARK  237  A    between atoms: _571  and  _574
REMARK  238  A    between atoms: _574  and  _575
REMARK  239  A    between atoms: _580  and  _582
REMARK  240  A    between atoms: _582  and  _583
REMARK  241  A    between atoms: _582  and  _585
REMARK  242  A    between atoms: _585  and  _586
REMARK  243  A    between atoms: _589  and  _591
REMARK  244  A    between atoms: _591  and  _592
REMARK  245  A    between atoms: _591  and  _594
REMARK  246  A    between atoms: _594  and  _595
REMARK  247  A    between atoms: _598  and  _600
REMARK  248  A    between atoms: _600  and  _601
REMARK  249  A    between atoms: _603  and  _605
REMARK  250  A    between atoms: _605  and  _606
REMARK  251  A    between atoms: _605  and  _608
REMARK  252  A    between atoms: _608  and  _609
REMARK  253  A    between atoms: _609  and  _610
REMARK  254  A    between atoms: _610  and  _611
REMARK                            x       y       z     vdW  Elec       q    Type
REMARK                         _______ _______ _______ _____ _____    ______ ____
ROOT
ATOM      1  O   HOH     1     -15.010 -18.680   2.172  0.00  0.00    +0.000 OA
ENDROOT
TORSDOF 0
REMARK  Name = ../refined-set-2016/2p3c/2p3c_pocket.pdb
REMARK  254 active torsions:
REMARK  status: ('A' for Active; 'I' for Inactive)
REMARK    1  A    between atoms: _1  and  _3
REMARK    2  A    between atoms: _3  and  _4
REMARK    3  A    between atoms: _3  and  _6
REMARK    4  A    between atoms: _6  and  _7
REMARK    5  A    between atoms: _7  and  _8
REMARK    6  A    between atoms: _8  and  _9
REMARK    7  A    between atoms: _9  and  _10
REMARK    8  A    between atoms: _14  and  _16
REMARK    9  A    between atoms: _16  and  _17
REMARK   10  A    between atoms: _16  and  _19
REMARK   11  A    between atoms: _19  and  _20
REMARK   12  A    between atoms: _20  and  _21
REMARK   13  A    between atoms: _21  and  _22
REMARK   14  A    between atoms: _31  and  _33
REMARK   15  A    between atoms: _33  and  _34
REMARK   16  A    between atoms: _33  and  _36
REMARK   17  A    between atoms: _36  and  _37
REMARK   18  A    between atoms: _40  and  _42
REMARK   19  A    between atoms: _42  and  _43
REMARK   20  A    between atoms: _42  and  _45
REMARK   21  A    between atoms: _45  and  _46
REMARK   22  A    between atoms: _49  and  _51
REMARK   23  A    between atoms: _51  and  _52
REMARK   24  A    between atoms: _51  and  _54
REMARK   25  A    between atoms: _54  and  _55
REMARK   26  A    between atoms: _58  and  _60
REMARK   27  A    between atoms: _60  and  _61
REMARK   28  A    between atoms: _60  and  _63
REMARK   29  A    between atoms: _63  and  _64
REMARK   30  A    between atoms: _67  and  _69
REMARK   31  A    between atoms: _69  and  _70
REMARK   32  A    between atoms: _72  and  _74
REMARK   33  A    between atoms: _74  and  _75
REMARK   34  A    between atoms: _78  and  _80
REMARK   35  A    between atoms: _80  and  _81
REMARK   36  A    between atoms: _80  and  _83
REMARK   37  A    between atoms: _83  and  _84
REMARK   38  A    between atoms: _87  and  _89
REMARK   39  A    between atoms: _89  and  _90
REMARK   40  A    between atoms: _89  and  _92
REMARK   41  A    between atoms: _92  and  _93
REMARK   42  A    between atoms: _96  and  _98
REMARK   43  A    between atoms: _98  and  _99
REMARK   44  A    between atoms: _98  and  _101
REMARK   45  A    between atoms: _101  and  _102
REMARK   46  A    between atoms: _105  and  _107
REMARK   47  A    between atoms: _107  and  _108
REMARK   48  A    between atoms: _107  and  _110
REMARK   49  A    between atoms: _113  and  _115
REMARK   50  A    between atoms: _115  and  _116
REMARK   51  A    between atoms: _115  and  _118
REMARK   52  A    between atoms: _118  and  _119
REMARK   53  A    between atoms: _119  and  _120
REMARK   54  A    between atoms: _120  and  _121
REMARK   55  A    between atoms: _121  and  _122
REMARK   56  A    between atoms: _126  and  _128
REMARK   57  A    between atoms: _128  and  _129
REMARK   58  A    between atoms: _128  and  _131
REMARK   59  A    between atoms: _131  and  _132
REMARK   60  A    between atoms: _132  and  _133
REMARK   61  A    between atoms: _135  and  _137
REMARK   62  A    between atoms: _137  and  _138
REMARK   63  A    between atoms: _137  and  _140
REMARK   64  A    between atoms: _140  and  _141
REMARK   65  A    between atoms: _144  and  _146
REMARK   66  A    between atoms: _146  and  _147
REMARK   67  A    between atoms: _149  and  _151
REMARK   68  A    between atoms: _151  and  _152
REMARK   69  A    between atoms: _154  and  _156
REMARK   70  A    between atoms: _156  and  _157
REMARK   71  A    between atoms: _156  and  _159
REMARK   72  A    between atoms: _159  and  _160
REMARK   73  A    between atoms: _163  and  _165
REMARK   74  A    between atoms: _165  and  _166
REMARK   75  A    between atoms: _168  and  _170
REMARK   76  A    between atoms: _170  and  _171
REMARK   77  A    between atoms: _173  and  _175
REMARK   78  A    between atoms: _175  and  _176
REMARK   79  A    between atoms: _175  and  _178
REMARK   80  A    between atoms: _178  and  _179
REMARK   81  A    between atoms: _185  and  _187
REMARK   82  A    between atoms: _187  and  _188
REMARK   83  A    between atoms: _187  and  _190
REMARK   84  A    between atoms: _190  and  _191
REMARK   85  A    between atoms: _194  and  _196
REMARK   86  A    between atoms: _196  and  _197
REMARK   87  A    between atoms: _196  and  _199
REMARK   88  A    between atoms: _202  and  _204
REMARK   89  A    between atoms: _204  and  _205
REMARK   90  A    between atoms: _204  and  _207
REMARK   91  A    between atoms: _207  and  _208
REMARK   92  A    between atoms: _208  and  _209
REMARK   93  A    between atoms: _214  and  _216
REMARK   94  A    between atoms: _216  and  _217
REMARK   95  A    between atoms: _216  and  _219
REMARK   96  A    between atoms: _219  and  _220
REMARK   97  A    between atoms: _224  and  _225
REMARK   98  A    between atoms: _230  and  _232
REMARK   99  A    between atoms: _232  and  _233
REMARK  100  A    between atoms: _232  and  _235
REMARK  101  A    between atoms: _235  and  _236
REMARK  102  A    between atoms: _240  and  _241
REMARK  103  A    between atoms: _246  and  _248
REMARK  104  A    between atoms: _248  and  _249
REMARK  105  A    between atoms: _248  and  _251
REMARK  106  A    between atoms: _254  and  _256
REMARK  107  A    between atoms: _256  and  _257
REMARK  108  A    between atoms: _256  and  _259
REMARK  109  A    between atoms: _259  and  _260
REMARK  110  A    between atoms: _265  and  _267
REMARK  111  A    between atoms: _267  and  _268
REMARK  112  A    between atoms: _267  and  _270
REMARK  113  A    between atoms: _270  and  _271
REMARK  114  A    between atoms: _274  and  _276
REMARK  115  A    between atoms: _276  and  _277
REMARK  116  A    between atoms: _276  and  _279
REMARK  117  A    between atoms: _279  and  _280
REMARK  118  A    between atoms: _283  and  _285
REMARK  119  A    between atoms: _285  and  _286
REMARK  120  A    between atoms: _288  and  _290
REMARK  121  A    between atoms: _290  and  _291
REMARK  122  A    between atoms: _290  and  _293
REMARK  123  A    between atoms: _293  and  _294
REMARK  124  A    between atoms: _294  and  _295
REMARK  125  A    between atoms: _295  and  _296
REMARK  126  A    between atoms: _305  and  _307
REMARK  127  A    between atoms: _307  and  _308
REMARK  128  A    between atoms: _307  and  _310
REMARK  129  A    between atoms: _310  and  _311
REMARK  130  A    between atoms: _316  and  _318
REMARK  131  A    between atoms: _318  and  _319
REMARK  132  A    between atoms: _318  and  _321
REMARK  133  A    between atoms: _321  and  _322
REMARK  134  A    between atoms: _322  and  _323
REMARK  135  A    between atoms: _323  and  _324
REMARK  136  A    between atoms: _324  and  _325
REMARK  137  A    between atoms: _329  and  _331
REMARK  138  A    between atoms: _331  and  _332
REMARK  139  A    between atoms: _331  and  _334
REMARK  140  A    between atoms: _334  and  _335
REMARK  141  A    between atoms: _335  and  _336
REMARK  142  A    between atoms: _336  and  _337
REMARK  143  A    between atoms: _346  and  _348
REMARK  144  A    between atoms: _348  and  _349
REMARK  145  A    between atoms: _348  and  _351
REMARK  146  A    between atoms: _351  and  _352
REMARK  147  A    between atoms: _355  and  _357
REMARK  148  A    between atoms: _357  and  _358
REMARK  149  A    between atoms: _357  and  _360
REMARK  150  A    between atoms: _360  and  _361
REMARK  151  A    between atoms: _364  and  _366
REMARK  152  A    between atoms: _366  and  _367
REMARK  153  A    between atoms: _366  and  _369
REMARK  154  A    between atoms: _369  and  _370
REMARK  155  A    between atoms: _373  and  _375
REMARK  156  A    between atoms: _375  and  _376
REMARK  157  A    between atoms: _375  and  _378
REMARK  158  A    between atoms: _378  and  _379
REMARK  159  A    between atoms: _382  and  _384
REMARK  160  A    between atoms: _384  and  _385
REMARK  161  A    between atoms: _387  and  _389
REMARK  162  A    between atoms: _389  and  _390
REMARK  163  A    between atoms: _393  and  _395
REMARK  164  A    between atoms: _395  and  _396
REMARK  165  A    between atoms: _395  and  _398
REMARK  166  A    between atoms: _398  and  _399
REMARK  167  A    between atoms: _402  and  _404
REMARK  168  A    between atoms: _404  and  _405
REMARK  169  A    between atoms: _404  and  _407
REMARK  170  A    between atoms: _407  and  _408
REMARK  171  A    between atoms: _411  and  _413
REMARK  172  A    between atoms: _413  and  _414
REMARK  173  A    between atoms: _413  and  _416
REMARK  174  A    between atoms: _416  and  _417
REMARK  175  A    between atoms: _420  and  _422
REMARK  176  A    between atoms: _422  and  _423
REMARK  177  A    between atoms: _422  and  _425
REMARK  178  A    between atoms: _428  and  _430
REMARK  179  A    between atoms: _430  and  _431
REMARK  180  A    between atoms: _430  and  _433
REMARK  181  A    between atoms: _433  and  _434
REMARK  182  A    between atoms: _434  and  _435
REMARK  183  A    between atoms: _435  and  _436
REMARK  184  A    between atoms: _436  and  _437
REMARK  185  A    between atoms: _441  and  _443
REMARK  186  A    between atoms: _443  and  _444
REMARK  187  A    between atoms: _443  and  _446
REMARK  188  A    between atoms: _446  and  _447
REMARK  189  A    between atoms: _447  and  _448
REMARK  190  A    between atoms: _450  and  _452
REMARK  191  A    between atoms: _452  and  _453
REMARK  192  A    between atoms: _452  and  _455
REMARK  193  A    between atoms: _455  and  _456
REMARK  194  A    between atoms: _459  and  _461
REMARK  195  A    between atoms: _461  and  _462
REMARK  196  A    between atoms: _464  and  _466
REMARK  197  A    between atoms: _466  and  _467
REMARK  198  A    between atoms: _469  and  _471
REMARK  199  A    between atoms: _471  and  _472
REMARK  200  A    between atoms: _471  and  _474
REMARK  201  A    between atoms: _474  and  _475
REMARK  202  A    between atoms: _478  and  _480
REMARK  203  A    between atoms: _480  and  _481
REMARK  204  A    between atoms: _483  and  _485
REMARK  205  A    between atoms: _485  and  _486
REMARK  206  A    between atoms: _488  and  _490
REMARK  207  A    between atoms: _490  and  _491
REMARK  208  A    between atoms: _490  and  _493
REMARK  209  A    between atoms: _493  and  _494
REMARK  210  A    between atoms: _500  and  _502
REMARK  211  A    between atoms: _502  and  _503
REMARK  212  A    between atoms: _502  and  _505
REMARK  213  A    between atoms: _505  and  _506
REMARK  214  A    between atoms: _509  and  _511
REMARK  215  A    between atoms: _511  and  _512
REMARK  216  A    between atoms: _511  and  _514
REMARK  217  A    between atoms: _517  and  _519
REMARK  218  A    between atoms: _519  and  _520
REMARK  219  A    between atoms: _519  and  _522
REMARK  220  A    between atoms: _522  and  _523
REMARK  221  A    between atoms: _523  and  _524
REMARK  222  A    between atoms: _529  and  _531
REMARK  223  A    between atoms: _531  and  _532
REMARK  224  A    between atoms: _531  and  _534
REMARK  225  A    between atoms: _534  and  _535
REMARK  226  A    between atoms: _539  and  _540
REMARK  227  A    between atoms: _545  and  _547
REMARK  228  A    between atoms: _547  and  _548
REMARK  229  A    between atoms: _547  and  _550
REMARK  230  A    between atoms: _550  and  _551
REMARK  231  A    between atoms: _555  and  _556
REMARK  232  A    between atoms: _561  and  _563
REMARK  233  A    between atoms: _563  and  _564
REMARK  234  A    between atoms: _563  and  _566
REMARK  235  A    between atoms: _569  and  _571
REMARK  236  A    between atoms: _571  and  _572
REMARK  237  A    between atoms: _571  and  _574
REMARK  238  A    between atoms: _574  and  _575
REMARK  239  A    between atoms: _580  and  _582
REMARK  240  A    between atoms: _582  and  _583
REMARK  241  A    between atoms: _582  and  _585
REMARK  242  A    between atoms: _585  and  _586
REMARK  243  A    between atoms: _589  and  _591
REMARK  244  A    between atoms: _591  and  _592
REMARK  245  A    between atoms: _591  and  _594
REMARK  246  A    between atoms: _594  and  _595
REMARK  247  A    between atoms: _598  and  _600
REMARK  248  A    between atoms: _600  and  _601
REMARK  249  A    between atoms: _603  and  _605
REMARK  250  A    between atoms: _605  and  _606
REMARK  251  A    between atoms: _605  and  _608
REMARK  252  A    between atoms: _608  and  _609
REMARK  253  A    between atoms: _609  and  _610
REMARK  254  A    between atoms: _610  and  _611
REMARK                            x       y       z     vdW  Elec       q    Type
REMARK                         _______ _______ _______ _____ _____    ______ ____
ROOT
ATOM      1  O   HOH     1     -15.137 -15.684   9.392  0.00  0.00    +0.000 OA
ENDROOT
TORSDOF 0
REMARK  Name = ../refined-set-2016/2p3c/2p3c_pocket.pdb
REMARK  254 active torsions:
REMARK  status: ('A' for Active; 'I' for Inactive)
REMARK    1  A    between atoms: _1  and  _3
REMARK    2  A    between atoms: _3  and  _4
REMARK    3  A    between atoms: _3  and  _6
REMARK    4  A    between atoms: _6  and  _7
REMARK    5  A    between atoms: _7  and  _8
REMARK    6  A    between atoms: _8  and  _9
REMARK    7  A    between atoms: _9  and  _10
REMARK    8  A    between atoms: _14  and  _16
REMARK    9  A    between atoms: _16  and  _17
REMARK   10  A    between atoms: _16  and  _19
REMARK   11  A    between atoms: _19  and  _20
REMARK   12  A    between atoms: _20  and  _21
REMARK   13  A    between atoms: _21  and  _22
REMARK   14  A    between atoms: _31  and  _33
REMARK   15  A    between atoms: _33  and  _34
REMARK   16  A    between atoms: _33  and  _36
REMARK   17  A    between atoms: _36  and  _37
REMARK   18  A    between atoms: _40  and  _42
REMARK   19  A    between atoms: _42  and  _43
REMARK   20  A    between atoms: _42  and  _45
REMARK   21  A    between atoms: _45  and  _46
REMARK   22  A    between atoms: _49  and  _51
REMARK   23  A    between atoms: _51  and  _52
REMARK   24  A    between atoms: _51  and  _54
REMARK   25  A    between atoms: _54  and  _55
REMARK   26  A    between atoms: _58  and  _60
REMARK   27  A    between atoms: _60  and  _61
REMARK   28  A    between atoms: _60  and  _63
REMARK   29  A    between atoms: _63  and  _64
REMARK   30  A    between atoms: _67  and  _69
REMARK   31  A    between atoms: _69  and  _70
REMARK   32  A    between atoms: _72  and  _74
REMARK   33  A    between atoms: _74  and  _75
REMARK   34  A    between atoms: _78  and  _80
REMARK   35  A    between atoms: _80  and  _81
REMARK   36  A    between atoms: _80  and  _83
REMARK   37  A    between atoms: _83  and  _84
REMARK   38  A    between atoms: _87  and  _89
REMARK   39  A    between atoms: _89  and  _90
REMARK   40  A    between atoms: _89  and  _92
REMARK   41  A    between atoms: _92  and  _93
REMARK   42  A    between atoms: _96  and  _98
REMARK   43  A    between atoms: _98  and  _99
REMARK   44  A    between atoms: _98  and  _101
REMARK   45  A    between atoms: _101  and  _102
REMARK   46  A    between atoms: _105  and  _107
REMARK   47  A    between atoms: _107  and  _108
REMARK   48  A    between atoms: _107  and  _110
REMARK   49  A    between atoms: _113  and  _115
REMARK   50  A    between atoms: _115  and  _116
REMARK   51  A    between atoms: _115  and  _118
REMARK   52  A    between atoms: _118  and  _119
REMARK   53  A    between atoms: _119  and  _120
REMARK   54  A    between atoms: _120  and  _121
REMARK   55  A    between atoms: _121  and  _122
REMARK   56  A    between atoms: _126  and  _128
REMARK   57  A    between atoms: _128  and  _129
REMARK   58  A    between atoms: _128  and  _131
REMARK   59  A    between atoms: _131  and  _132
REMARK   60  A    between atoms: _132  and  _133
REMARK   61  A    between atoms: _135  and  _137
REMARK   62  A    between atoms: _137  and  _138
REMARK   63  A    between atoms: _137  and  _140
REMARK   64  A    between atoms: _140  and  _141
REMARK   65  A    between atoms: _144  and  _146
REMARK   66  A    between atoms: _146  and  _147
REMARK   67  A    between atoms: _149  and  _151
REMARK   68  A    between atoms: _151  and  _152
REMARK   69  A    between atoms: _154  and  _156
REMARK   70  A    between atoms: _156  and  _157
REMARK   71  A    between atoms: _156  and  _159
REMARK   72  A    between atoms: _159  and  _160
REMARK   73  A    between atoms: _163  and  _165
REMARK   74  A    between atoms: _165  and  _166
REMARK   75  A    between atoms: _168  and  _170
REMARK   76  A    between atoms: _170  and  _171
REMARK   77  A    between atoms: _173  and  _175
REMARK   78  A    between atoms: _175  and  _176
REMARK   79  A    between atoms: _175  and  _178
REMARK   80  A    between atoms: _178  and  _179
REMARK   81  A    between atoms: _185  and  _187
REMARK   82  A    between atoms: _187  and  _188
REMARK   83  A    between atoms: _187  and  _190
REMARK   84  A    between atoms: _190  and  _191
REMARK   85  A    between atoms: _194  and  _196
REMARK   86  A    between atoms: _196  and  _197
REMARK   87  A    between atoms: _196  and  _199
REMARK   88  A    between atoms: _202  and  _204
REMARK   89  A    between atoms: _204  and  _205
REMARK   90  A    between atoms: _204  and  _207
REMARK   91  A    between atoms: _207  and  _208
REMARK   92  A    between atoms: _208  and  _209
REMARK   93  A    between atoms: _214  and  _216
REMARK   94  A    between atoms: _216  and  _217
REMARK   95  A    between atoms: _216  and  _219
REMARK   96  A    between atoms: _219  and  _220
REMARK   97  A    between atoms: _224  and  _225
REMARK   98  A    between atoms: _230  and  _232
REMARK   99  A    between atoms: _232  and  _233
REMARK  100  A    between atoms: _232  and  _235
REMARK  101  A    between atoms: _235  and  _236
REMARK  102  A    between atoms: _240  and  _241
REMARK  103  A    between atoms: _246  and  _248
REMARK  104  A    between atoms: _248  and  _249
REMARK  105  A    between atoms: _248  and  _251
REMARK  106  A    between atoms: _254  and  _256
REMARK  107  A    between atoms: _256  and  _257
REMARK  108  A    between atoms: _256  and  _259
REMARK  109  A    between atoms: _259  and  _260
REMARK  110  A    between atoms: _265  and  _267
REMARK  111  A    between atoms: _267  and  _268
REMARK  112  A    between atoms: _267  and  _270
REMARK  113  A    between atoms: _270  and  _271
REMARK  114  A    between atoms: _274  and  _276
REMARK  115  A    between atoms: _276  and  _277
REMARK  116  A    between atoms: _276  and  _279
REMARK  117  A    between atoms: _279  and  _280
REMARK  118  A    between atoms: _283  and  _285
REMARK  119  A    between atoms: _285  and  _286
REMARK  120  A    between atoms: _288  and  _290
REMARK  121  A    between atoms: _290  and  _291
REMARK  122  A    between atoms: _290  and  _293
REMARK  123  A    between atoms: _293  and  _294
REMARK  124  A    between atoms: _294  and  _295
REMARK  125  A    between atoms: _295  and  _296
REMARK  126  A    between atoms: _305  and  _307
REMARK  127  A    between atoms: _307  and  _308
REMARK  128  A    between atoms: _307  and  _310
REMARK  129  A    between atoms: _310  and  _311
REMARK  130  A    between atoms: _316  and  _318
REMARK  131  A    between atoms: _318  and  _319
REMARK  132  A    between atoms: _318  and  _321
REMARK  133  A    between atoms: _321  and  _322
REMARK  134  A    between atoms: _322  and  _323
REMARK  135  A    between atoms: _323  and  _324
REMARK  136  A    between atoms: _324  and  _325
REMARK  137  A    between atoms: _329  and  _331
REMARK  138  A    between atoms: _331  and  _332
REMARK  139  A    between atoms: _331  and  _334
REMARK  140  A    between atoms: _334  and  _335
REMARK  141  A    between atoms: _335  and  _336
REMARK  142  A    between atoms: _336  and  _337
REMARK  143  A    between atoms: _346  and  _348
REMARK  144  A    between atoms: _348  and  _349
REMARK  145  A    between atoms: _348  and  _351
REMARK  146  A    between atoms: _351  and  _352
REMARK  147  A    between atoms: _355  and  _357
REMARK  148  A    between atoms: _357  and  _358
REMARK  149  A    between atoms: _357  and  _360
REMARK  150  A    between atoms: _360  and  _361
REMARK  151  A    between atoms: _364  and  _366
REMARK  152  A    between atoms: _366  and  _367
REMARK  153  A    between atoms: _366  and  _369
REMARK  154  A    between atoms: _369  and  _370
REMARK  155  A    between atoms: _373  and  _375
REMARK  156  A    between atoms: _375  and  _376
REMARK  157  A    between atoms: _375  and  _378
REMARK  158  A    between atoms: _378  and  _379
REMARK  159  A    between atoms: _382  and  _384
REMARK  160  A    between atoms: _384  and  _385
REMARK  161  A    between atoms: _387  and  _389
REMARK  162  A    between atoms: _389  and  _390
REMARK  163  A    between atoms: _393  and  _395
REMARK  164  A    between atoms: _395  and  _396
REMARK  165  A    between atoms: _395  and  _398
REMARK  166  A    between atoms: _398  and  _399
REMARK  167  A    between atoms: _402  and  _404
REMARK  168  A    between atoms: _404  and  _405
REMARK  169  A    between atoms: _404  and  _407
REMARK  170  A    between atoms: _407  and  _408
REMARK  171  A    between atoms: _411  and  _413
REMARK  172  A    between atoms: _413  and  _414
REMARK  173  A    between atoms: _413  and  _416
REMARK  174  A    between atoms: _416  and  _417
REMARK  175  A    between atoms: _420  and  _422
REMARK  176  A    between atoms: _422  and  _423
REMARK  177  A    between atoms: _422  and  _425
REMARK  178  A    between atoms: _428  and  _430
REMARK  179  A    between atoms: _430  and  _431
REMARK  180  A    between atoms: _430  and  _433
REMARK  181  A    between atoms: _433  and  _434
REMARK  182  A    between atoms: _434  and  _435
REMARK  183  A    between atoms: _435  and  _436
REMARK  184  A    between atoms: _436  and  _437
REMARK  185  A    between atoms: _441  and  _443
REMARK  186  A    between atoms: _443  and  _444
REMARK  187  A    between atoms: _443  and  _446
REMARK  188  A    between atoms: _446  and  _447
REMARK  189  A    between atoms: _447  and  _448
REMARK  190  A    between atoms: _450  and  _452
REMARK  191  A    between atoms: _452  and  _453
REMARK  192  A    between atoms: _452  and  _455
REMARK  193  A    between atoms: _455  and  _456
REMARK  194  A    between atoms: _459  and  _461
REMARK  195  A    between atoms: _461  and  _462
REMARK  196  A    between atoms: _464  and  _466
REMARK  197  A    between atoms: _466  and  _467
REMARK  198  A    between atoms: _469  and  _471
REMARK  199  A    between atoms: _471  and  _472
REMARK  200  A    between atoms: _471  and  _474
REMARK  201  A    between atoms: _474  and  _475
REMARK  202  A    between atoms: _478  and  _480
REMARK  203  A    between atoms: _480  and  _481
REMARK  204  A    between atoms: _483  and  _485
REMARK  205  A    between atoms: _485  and  _486
REMARK  206  A    between atoms: _488  and  _490
REMARK  207  A    between atoms: _490  and  _491
REMARK  208  A    between atoms: _490  and  _493
REMARK  209  A    between atoms: _493  and  _494
REMARK  210  A    between atoms: _500  and  _502
REMARK  211  A    between atoms: _502  and  _503
REMARK  212  A    between atoms: _502  and  _505
REMARK  213  A    between atoms: _505  and  _506
REMARK  214  A    between atoms: _509  and  _511
REMARK  215  A    between atoms: _511  and  _512
REMARK  216  A    between atoms: _511  and  _514
REMARK  217  A    between atoms: _517  and  _519
REMARK  218  A    between atoms: _519  and  _520
REMARK  219  A    between atoms: _519  and  _522
REMARK  220  A    between atoms: _522  and  _523
REMARK  221  A    between atoms: _523  and  _524
REMARK  222  A    between atoms: _529  and  _531
REMARK  223  A    between atoms: _531  and  _532
REMARK  224  A    between atoms: _531  and  _534
REMARK  225  A    between atoms: _534  and  _535
REMARK  226  A    between atoms: _539  and  _540
REMARK  227  A    between atoms: _545  and  _547
REMARK  228  A    between atoms: _547  and  _548
REMARK  229  A    between atoms: _547  and  _550
REMARK  230  A    between atoms: _550  and  _551
REMARK  231  A    between atoms: _555  and  _556
REMARK  232  A    between atoms: _561  and  _563
REMARK  233  A    between atoms: _563  and  _564
REMARK  234  A    between atoms: _563  and  _566
REMARK  235  A    between atoms: _569  and  _571
REMARK  236  A    between atoms: _571  and  _572
REMARK  237  A    between atoms: _571  and  _574
REMARK  238  A    between atoms: _574  and  _575
REMARK  239  A    between atoms: _580  and  _582
REMARK  240  A    between atoms: _582  and  _583
REMARK  241  A    between atoms: _582  and  _585
REMARK  242  A    between atoms: _585  and  _586
REMARK  243  A    between atoms: _589  and  _591
REMARK  244  A    between atoms: _591  and  _592
REMARK  245  A    between atoms: _591  and  _594
REMARK  246  A    between atoms: _594  and  _595
REMARK  247  A    between atoms: _598  and  _600
REMARK  248  A    between atoms: _600  and  _601
REMARK  249  A    between atoms: _603  and  _605
REMARK  250  A    between atoms: _605  and  _606
REMARK  251  A    between atoms: _605  and  _608
REMARK  252  A    between atoms: _608  and  _609
REMARK  253  A    between atoms: _609  and  _610
REMARK  254  A    between atoms: _610  and  _611
REMARK                            x       y       z     vdW  Elec       q    Type
REMARK                         _______ _______ _______ _____ _____    ______ ____
ROOT
ATOM      1  O   HOH     1     -10.838 -17.554  -0.473  0.00  0.00    +0.000 OA
ENDROOT
TORSDOF 0
REMARK  Name = ../refined-set-2016/2p3c/2p3c_pocket.pdb
REMARK  254 active torsions:
REMARK  status: ('A' for Active; 'I' for Inactive)
REMARK    1  A    between atoms: _1  and  _3
REMARK    2  A    between atoms: _3  and  _4
REMARK    3  A    between atoms: _3  and  _6
REMARK    4  A    between atoms: _6  and  _7
REMARK    5  A    between atoms: _7  and  _8
REMARK    6  A    between atoms: _8  and  _9
REMARK    7  A    between atoms: _9  and  _10
REMARK    8  A    between atoms: _14  and  _16
REMARK    9  A    between atoms: _16  and  _17
REMARK   10  A    between atoms: _16  and  _19
REMARK   11  A    between atoms: _19  and  _20
REMARK   12  A    between atoms: _20  and  _21
REMARK   13  A    between atoms: _21  and  _22
REMARK   14  A    between atoms: _31  and  _33
REMARK   15  A    between atoms: _33  and  _34
REMARK   16  A    between atoms: _33  and  _36
REMARK   17  A    between atoms: _36  and  _37
REMARK   18  A    between atoms: _40  and  _42
REMARK   19  A    between atoms: _42  and  _43
REMARK   20  A    between atoms: _42  and  _45
REMARK   21  A    between atoms: _45  and  _46
REMARK   22  A    between atoms: _49  and  _51
REMARK   23  A    between atoms: _51  and  _52
REMARK   24  A    between atoms: _51  and  _54
REMARK   25  A    between atoms: _54  and  _55
REMARK   26  A    between atoms: _58  and  _60
REMARK   27  A    between atoms: _60  and  _61
REMARK   28  A    between atoms: _60  and  _63
REMARK   29  A    between atoms: _63  and  _64
REMARK   30  A    between atoms: _67  and  _69
REMARK   31  A    between atoms: _69  and  _70
REMARK   32  A    between atoms: _72  and  _74
REMARK   33  A    between atoms: _74  and  _75
REMARK   34  A    between atoms: _78  and  _80
REMARK   35  A    between atoms: _80  and  _81
REMARK   36  A    between atoms: _80  and  _83
REMARK   37  A    between atoms: _83  and  _84
REMARK   38  A    between atoms: _87  and  _89
REMARK   39  A    between atoms: _89  and  _90
REMARK   40  A    between atoms: _89  and  _92
REMARK   41  A    between atoms: _92  and  _93
REMARK   42  A    between atoms: _96  and  _98
REMARK   43  A    between atoms: _98  and  _99
REMARK   44  A    between atoms: _98  and  _101
REMARK   45  A    between atoms: _101  and  _102
REMARK   46  A    between atoms: _105  and  _107
REMARK   47  A    between atoms: _107  and  _108
REMARK   48  A    between atoms: _107  and  _110
REMARK   49  A    between atoms: _113  and  _115
REMARK   50  A    between atoms: _115  and  _116
REMARK   51  A    between atoms: _115  and  _118
REMARK   52  A    between atoms: _118  and  _119
REMARK   53  A    between atoms: _119  and  _120
REMARK   54  A    between atoms: _120  and  _121
REMARK   55  A    between atoms: _121  and  _122
REMARK   56  A    between atoms: _126  and  _128
REMARK   57  A    between atoms: _128  and  _129
REMARK   58  A    between atoms: _128  and  _131
REMARK   59  A    between atoms: _131  and  _132
REMARK   60  A    between atoms: _132  and  _133
REMARK   61  A    between atoms: _135  and  _137
REMARK   62  A    between atoms: _137  and  _138
REMARK   63  A    between atoms: _137  and  _140
REMARK   64  A    between atoms: _140  and  _141
REMARK   65  A    between atoms: _144  and  _146
REMARK   66  A    between atoms: _146  and  _147
REMARK   67  A    between atoms: _149  and  _151
REMARK   68  A    between atoms: _151  and  _152
REMARK   69  A    between atoms: _154  and  _156
REMARK   70  A    between atoms: _156  and  _157
REMARK   71  A    between atoms: _156  and  _159
REMARK   72  A    between atoms: _159  and  _160
REMARK   73  A    between atoms: _163  and  _165
REMARK   74  A    between atoms: _165  and  _166
REMARK   75  A    between atoms: _168  and  _170
REMARK   76  A    between atoms: _170  and  _171
REMARK   77  A    between atoms: _173  and  _175
REMARK   78  A    between atoms: _175  and  _176
REMARK   79  A    between atoms: _175  and  _178
REMARK   80  A    between atoms: _178  and  _179
REMARK   81  A    between atoms: _185  and  _187
REMARK   82  A    between atoms: _187  and  _188
REMARK   83  A    between atoms: _187  and  _190
REMARK   84  A    between atoms: _190  and  _191
REMARK   85  A    between atoms: _194  and  _196
REMARK   86  A    between atoms: _196  and  _197
REMARK   87  A    between atoms: _196  and  _199
REMARK   88  A    between atoms: _202  and  _204
REMARK   89  A    between atoms: _204  and  _205
REMARK   90  A    between atoms: _204  and  _207
REMARK   91  A    between atoms: _207  and  _208
REMARK   92  A    between atoms: _208  and  _209
REMARK   93  A    between atoms: _214  and  _216
REMARK   94  A    between atoms: _216  and  _217
REMARK   95  A    between atoms: _216  and  _219
REMARK   96  A    between atoms: _219  and  _220
REMARK   97  A    between atoms: _224  and  _225
REMARK   98  A    between atoms: _230  and  _232
REMARK   99  A    between atoms: _232  and  _233
REMARK  100  A    between atoms: _232  and  _235
REMARK  101  A    between atoms: _235  and  _236
REMARK  102  A    between atoms: _240  and  _241
REMARK  103  A    between atoms: _246  and  _248
REMARK  104  A    between atoms: _248  and  _249
REMARK  105  A    between atoms: _248  and  _251
REMARK  106  A    between atoms: _254  and  _256
REMARK  107  A    between atoms: _256  and  _257
REMARK  108  A    between atoms: _256  and  _259
REMARK  109  A    between atoms: _259  and  _260
REMARK  110  A    between atoms: _265  and  _267
REMARK  111  A    between atoms: _267  and  _268
REMARK  112  A    between atoms: _267  and  _270
REMARK  113  A    between atoms: _270  and  _271
REMARK  114  A    between atoms: _274  and  _276
REMARK  115  A    between atoms: _276  and  _277
REMARK  116  A    between atoms: _276  and  _279
REMARK  117  A    between atoms: _279  and  _280
REMARK  118  A    between atoms: _283  and  _285
REMARK  119  A    between atoms: _285  and  _286
REMARK  120  A    between atoms: _288  and  _290
REMARK  121  A    between atoms: _290  and  _291
REMARK  122  A    between atoms: _290  and  _293
REMARK  123  A    between atoms: _293  and  _294
REMARK  124  A    between atoms: _294  and  _295
REMARK  125  A    between atoms: _295  and  _296
REMARK  126  A    between atoms: _305  and  _307
REMARK  127  A    between atoms: _307  and  _308
REMARK  128  A    between atoms: _307  and  _310
REMARK  129  A    between atoms: _310  and  _311
REMARK  130  A    between atoms: _316  and  _318
REMARK  131  A    between atoms: _318  and  _319
REMARK  132  A    between atoms: _318  and  _321
REMARK  133  A    between atoms: _321  and  _322
REMARK  134  A    between atoms: _322  and  _323
REMARK  135  A    between atoms: _323  and  _324
REMARK  136  A    between atoms: _324  and  _325
REMARK  137  A    between atoms: _329  and  _331
REMARK  138  A    between atoms: _331  and  _332
REMARK  139  A    between atoms: _331  and  _334
REMARK  140  A    between atoms: _334  and  _335
REMARK  141  A    between atoms: _335  and  _336
REMARK  142  A    between atoms: _336  and  _337
REMARK  143  A    between atoms: _346  and  _348
REMARK  144  A    between atoms: _348  and  _349
REMARK  145  A    between atoms: _348  and  _351
REMARK  146  A    between atoms: _351  and  _352
REMARK  147  A    between atoms: _355  and  _357
REMARK  148  A    between atoms: _357  and  _358
REMARK  149  A    between atoms: _357  and  _360
REMARK  150  A    between atoms: _360  and  _361
REMARK  151  A    between atoms: _364  and  _366
REMARK  152  A    between atoms: _366  and  _367
REMARK  153  A    between atoms: _366  and  _369
REMARK  154  A    between atoms: _369  and  _370
REMARK  155  A    between atoms: _373  and  _375
REMARK  156  A    between atoms: _375  and  _376
REMARK  157  A    between atoms: _375  and  _378
REMARK  158  A    between atoms: _378  and  _379
REMARK  159  A    between atoms: _382  and  _384
REMARK  160  A    between atoms: _384  and  _385
REMARK  161  A    between atoms: _387  and  _389
REMARK  162  A    between atoms: _389  and  _390
REMARK  163  A    between atoms: _393  and  _395
REMARK  164  A    between atoms: _395  and  _396
REMARK  165  A    between atoms: _395  and  _398
REMARK  166  A    between atoms: _398  and  _399
REMARK  167  A    between atoms: _402  and  _404
REMARK  168  A    between atoms: _404  and  _405
REMARK  169  A    between atoms: _404  and  _407
REMARK  170  A    between atoms: _407  and  _408
REMARK  171  A    between atoms: _411  and  _413
REMARK  172  A    between atoms: _413  and  _414
REMARK  173  A    between atoms: _413  and  _416
REMARK  174  A    between atoms: _416  and  _417
REMARK  175  A    between atoms: _420  and  _422
REMARK  176  A    between atoms: _422  and  _423
REMARK  177  A    between atoms: _422  and  _425
REMARK  178  A    between atoms: _428  and  _430
REMARK  179  A    between atoms: _430  and  _431
REMARK  180  A    between atoms: _430  and  _433
REMARK  181  A    between atoms: _433  and  _434
REMARK  182  A    between atoms: _434  and  _435
REMARK  183  A    between atoms: _435  and  _436
REMARK  184  A    between atoms: _436  and  _437
REMARK  185  A    between atoms: _441  and  _443
REMARK  186  A    between atoms: _443  and  _444
REMARK  187  A    between atoms: _443  and  _446
REMARK  188  A    between atoms: _446  and  _447
REMARK  189  A    between atoms: _447  and  _448
REMARK  190  A    between atoms: _450  and  _452
REMARK  191  A    between atoms: _452  and  _453
REMARK  192  A    between atoms: _452  and  _455
REMARK  193  A    between atoms: _455  and  _456
REMARK  194  A    between atoms: _459  and  _461
REMARK  195  A    between atoms: _461  and  _462
REMARK  196  A    between atoms: _464  and  _466
REMARK  197  A    between atoms: _466  and  _467
REMARK  198  A    between atoms: _469  and  _471
REMARK  199  A    between atoms: _471  and  _472
REMARK  200  A    between atoms: _471  and  _474
REMARK  201  A    between atoms: _474  and  _475
REMARK  202  A    between atoms: _478  and  _480
REMARK  203  A    between atoms: _480  and  _481
REMARK  204  A    between atoms: _483  and  _485
REMARK  205  A    between atoms: _485  and  _486
REMARK  206  A    between atoms: _488  and  _490
REMARK  207  A    between atoms: _490  and  _491
REMARK  208  A    between atoms: _490  and  _493
REMARK  209  A    between atoms: _493  and  _494
REMARK  210  A    between atoms: _500  and  _502
REMARK  211  A    between atoms: _502  and  _503
REMARK  212  A    between atoms: _502  and  _505
REMARK  213  A    between atoms: _505  and  _506
REMARK  214  A    between atoms: _509  and  _511
REMARK  215  A    between atoms: _511  and  _512
REMARK  216  A    between atoms: _511  and  _514
REMARK  217  A    between atoms: _517  and  _519
REMARK  218  A    between atoms: _519  and  _520
REMARK  219  A    between atoms: _519  and  _522
REMARK  220  A    between atoms: _522  and  _523
REMARK  221  A    between atoms: _523  and  _524
REMARK  222  A    between atoms: _529  and  _531
REMARK  223  A    between atoms: _531  and  _532
REMARK  224  A    between atoms: _531  and  _534
REMARK  225  A    between atoms: _534  and  _535
REMARK  226  A    between atoms: _539  and  _540
REMARK  227  A    between atoms: _545  and  _547
REMARK  228  A    between atoms: _547  and  _548
REMARK  229  A    between atoms: _547  and  _550
REMARK  230  A    between atoms: _550  and  _551
REMARK  231  A    between atoms: _555  and  _556
REMARK  232  A    between atoms: _561  and  _563
REMARK  233  A    between atoms: _563  and  _564
REMARK  234  A    between atoms: _563  and  _566
REMARK  235  A    between atoms: _569  and  _571
REMARK  236  A    between atoms: _571  and  _572
REMARK  237  A    between atoms: _571  and  _574
REMARK  238  A    between atoms: _574  and  _575
REMARK  239  A    between atoms: _580  and  _582
REMARK  240  A    between atoms: _582  and  _583
REMARK  241  A    between atoms: _582  and  _585
REMARK  242  A    between atoms: _585  and  _586
REMARK  243  A    between atoms: _589  and  _591
REMARK  244  A    between atoms: _591  and  _592
REMARK  245  A    between atoms: _591  and  _594
REMARK  246  A    between atoms: _594  and  _595
REMARK  247  A    between atoms: _598  and  _600
REMARK  248  A    between atoms: _600  and  _601
REMARK  249  A    between atoms: _603  and  _605
REMARK  250  A    between atoms: _605  and  _606
REMARK  251  A    between atoms: _605  and  _608
REMARK  252  A    between atoms: _608  and  _609
REMARK  253  A    between atoms: _609  and  _610
REMARK  254  A    between atoms: _610  and  _611
REMARK                            x       y       z     vdW  Elec       q    Type
REMARK                         _______ _______ _______ _____ _____    ______ ____
ROOT
ATOM      1  O   HOH     1     -14.271 -13.419   2.860  0.00  0.00    +0.000 OA
ENDROOT
TORSDOF 0
REMARK  Name = ../refined-set-2016/2p3c/2p3c_pocket.pdb
REMARK  254 active torsions:
REMARK  status: ('A' for Active; 'I' for Inactive)
REMARK    1  A    between atoms: _1  and  _3
REMARK    2  A    between atoms: _3  and  _4
REMARK    3  A    between atoms: _3  and  _6
REMARK    4  A    between atoms: _6  and  _7
REMARK    5  A    between atoms: _7  and  _8
REMARK    6  A    between atoms: _8  and  _9
REMARK    7  A    between atoms: _9  and  _10
REMARK    8  A    between atoms: _14  and  _16
REMARK    9  A    between atoms: _16  and  _17
REMARK   10  A    between atoms: _16  and  _19
REMARK   11  A    between atoms: _19  and  _20
REMARK   12  A    between atoms: _20  and  _21
REMARK   13  A    between atoms: _21  and  _22
REMARK   14  A    between atoms: _31  and  _33
REMARK   15  A    between atoms: _33  and  _34
REMARK   16  A    between atoms: _33  and  _36
REMARK   17  A    between atoms: _36  and  _37
REMARK   18  A    between atoms: _40  and  _42
REMARK   19  A    between atoms: _42  and  _43
REMARK   20  A    between atoms: _42  and  _45
REMARK   21  A    between atoms: _45  and  _46
REMARK   22  A    between atoms: _49  and  _51
REMARK   23  A    between atoms: _51  and  _52
REMARK   24  A    between atoms: _51  and  _54
REMARK   25  A    between atoms: _54  and  _55
REMARK   26  A    between atoms: _58  and  _60
REMARK   27  A    between atoms: _60  and  _61
REMARK   28  A    between atoms: _60  and  _63
REMARK   29  A    between atoms: _63  and  _64
REMARK   30  A    between atoms: _67  and  _69
REMARK   31  A    between atoms: _69  and  _70
REMARK   32  A    between atoms: _72  and  _74
REMARK   33  A    between atoms: _74  and  _75
REMARK   34  A    between atoms: _78  and  _80
REMARK   35  A    between atoms: _80  and  _81
REMARK   36  A    between atoms: _80  and  _83
REMARK   37  A    between atoms: _83  and  _84
REMARK   38  A    between atoms: _87  and  _89
REMARK   39  A    between atoms: _89  and  _90
REMARK   40  A    between atoms: _89  and  _92
REMARK   41  A    between atoms: _92  and  _93
REMARK   42  A    between atoms: _96  and  _98
REMARK   43  A    between atoms: _98  and  _99
REMARK   44  A    between atoms: _98  and  _101
REMARK   45  A    between atoms: _101  and  _102
REMARK   46  A    between atoms: _105  and  _107
REMARK   47  A    between atoms: _107  and  _108
REMARK   48  A    between atoms: _107  and  _110
REMARK   49  A    between atoms: _113  and  _115
REMARK   50  A    between atoms: _115  and  _116
REMARK   51  A    between atoms: _115  and  _118
REMARK   52  A    between atoms: _118  and  _119
REMARK   53  A    between atoms: _119  and  _120
REMARK   54  A    between atoms: _120  and  _121
REMARK   55  A    between atoms: _121  and  _122
REMARK   56  A    between atoms: _126  and  _128
REMARK   57  A    between atoms: _128  and  _129
REMARK   58  A    between atoms: _128  and  _131
REMARK   59  A    between atoms: _131  and  _132
REMARK   60  A    between atoms: _132  and  _133
REMARK   61  A    between atoms: _135  and  _137
REMARK   62  A    between atoms: _137  and  _138
REMARK   63  A    between atoms: _137  and  _140
REMARK   64  A    between atoms: _140  and  _141
REMARK   65  A    between atoms: _144  and  _146
REMARK   66  A    between atoms: _146  and  _147
REMARK   67  A    between atoms: _149  and  _151
REMARK   68  A    between atoms: _151  and  _152
REMARK   69  A    between atoms: _154  and  _156
REMARK   70  A    between atoms: _156  and  _157
REMARK   71  A    between atoms: _156  and  _159
REMARK   72  A    between atoms: _159  and  _160
REMARK   73  A    between atoms: _163  and  _165
REMARK   74  A    between atoms: _165  and  _166
REMARK   75  A    between atoms: _168  and  _170
REMARK   76  A    between atoms: _170  and  _171
REMARK   77  A    between atoms: _173  and  _175
REMARK   78  A    between atoms: _175  and  _176
REMARK   79  A    between atoms: _175  and  _178
REMARK   80  A    between atoms: _178  and  _179
REMARK   81  A    between atoms: _185  and  _187
REMARK   82  A    between atoms: _187  and  _188
REMARK   83  A    between atoms: _187  and  _190
REMARK   84  A    between atoms: _190  and  _191
REMARK   85  A    between atoms: _194  and  _196
REMARK   86  A    between atoms: _196  and  _197
REMARK   87  A    between atoms: _196  and  _199
REMARK   88  A    between atoms: _202  and  _204
REMARK   89  A    between atoms: _204  and  _205
REMARK   90  A    between atoms: _204  and  _207
REMARK   91  A    between atoms: _207  and  _208
REMARK   92  A    between atoms: _208  and  _209
REMARK   93  A    between atoms: _214  and  _216
REMARK   94  A    between atoms: _216  and  _217
REMARK   95  A    between atoms: _216  and  _219
REMARK   96  A    between atoms: _219  and  _220
REMARK   97  A    between atoms: _224  and  _225
REMARK   98  A    between atoms: _230  and  _232
REMARK   99  A    between atoms: _232  and  _233
REMARK  100  A    between atoms: _232  and  _235
REMARK  101  A    between atoms: _235  and  _236
REMARK  102  A    between atoms: _240  and  _241
REMARK  103  A    between atoms: _246  and  _248
REMARK  104  A    between atoms: _248  and  _249
REMARK  105  A    between atoms: _248  and  _251
REMARK  106  A    between atoms: _254  and  _256
REMARK  107  A    between atoms: _256  and  _257
REMARK  108  A    between atoms: _256  and  _259
REMARK  109  A    between atoms: _259  and  _260
REMARK  110  A    between atoms: _265  and  _267
REMARK  111  A    between atoms: _267  and  _268
REMARK  112  A    between atoms: _267  and  _270
REMARK  113  A    between atoms: _270  and  _271
REMARK  114  A    between atoms: _274  and  _276
REMARK  115  A    between atoms: _276  and  _277
REMARK  116  A    between atoms: _276  and  _279
REMARK  117  A    between atoms: _279  and  _280
REMARK  118  A    between atoms: _283  and  _285
REMARK  119  A    between atoms: _285  and  _286
REMARK  120  A    between atoms: _288  and  _290
REMARK  121  A    between atoms: _290  and  _291
REMARK  122  A    between atoms: _290  and  _293
REMARK  123  A    between atoms: _293  and  _294
REMARK  124  A    between atoms: _294  and  _295
REMARK  125  A    between atoms: _295  and  _296
REMARK  126  A    between atoms: _305  and  _307
REMARK  127  A    between atoms: _307  and  _308
REMARK  128  A    between atoms: _307  and  _310
REMARK  129  A    between atoms: _310  and  _311
REMARK  130  A    between atoms: _316  and  _318
REMARK  131  A    between atoms: _318  and  _319
REMARK  132  A    between atoms: _318  and  _321
REMARK  133  A    between atoms: _321  and  _322
REMARK  134  A    between atoms: _322  and  _323
REMARK  135  A    between atoms: _323  and  _324
REMARK  136  A    between atoms: _324  and  _325
REMARK  137  A    between atoms: _329  and  _331
REMARK  138  A    between atoms: _331  and  _332
REMARK  139  A    between atoms: _331  and  _334
REMARK  140  A    between atoms: _334  and  _335
REMARK  141  A    between atoms: _335  and  _336
REMARK  142  A    between atoms: _336  and  _337
REMARK  143  A    between atoms: _346  and  _348
REMARK  144  A    between atoms: _348  and  _349
REMARK  145  A    between atoms: _348  and  _351
REMARK  146  A    between atoms: _351  and  _352
REMARK  147  A    between atoms: _355  and  _357
REMARK  148  A    between atoms: _357  and  _358
REMARK  149  A    between atoms: _357  and  _360
REMARK  150  A    between atoms: _360  and  _361
REMARK  151  A    between atoms: _364  and  _366
REMARK  152  A    between atoms: _366  and  _367
REMARK  153  A    between atoms: _366  and  _369
REMARK  154  A    between atoms: _369  and  _370
REMARK  155  A    between atoms: _373  and  _375
REMARK  156  A    between atoms: _375  and  _376
REMARK  157  A    between atoms: _375  and  _378
REMARK  158  A    between atoms: _378  and  _379
REMARK  159  A    between atoms: _382  and  _384
REMARK  160  A    between atoms: _384  and  _385
REMARK  161  A    between atoms: _387  and  _389
REMARK  162  A    between atoms: _389  and  _390
REMARK  163  A    between atoms: _393  and  _395
REMARK  164  A    between atoms: _395  and  _396
REMARK  165  A    between atoms: _395  and  _398
REMARK  166  A    between atoms: _398  and  _399
REMARK  167  A    between atoms: _402  and  _404
REMARK  168  A    between atoms: _404  and  _405
REMARK  169  A    between atoms: _404  and  _407
REMARK  170  A    between atoms: _407  and  _408
REMARK  171  A    between atoms: _411  and  _413
REMARK  172  A    between atoms: _413  and  _414
REMARK  173  A    between atoms: _413  and  _416
REMARK  174  A    between atoms: _416  and  _417
REMARK  175  A    between atoms: _420  and  _422
REMARK  176  A    between atoms: _422  and  _423
REMARK  177  A    between atoms: _422  and  _425
REMARK  178  A    between atoms: _428  and  _430
REMARK  179  A    between atoms: _430  and  _431
REMARK  180  A    between atoms: _430  and  _433
REMARK  181  A    between atoms: _433  and  _434
REMARK  182  A    between atoms: _434  and  _435
REMARK  183  A    between atoms: _435  and  _436
REMARK  184  A    between atoms: _436  and  _437
REMARK  185  A    between atoms: _441  and  _443
REMARK  186  A    between atoms: _443  and  _444
REMARK  187  A    between atoms: _443  and  _446
REMARK  188  A    between atoms: _446  and  _447
REMARK  189  A    between atoms: _447  and  _448
REMARK  190  A    between atoms: _450  and  _452
REMARK  191  A    between atoms: _452  and  _453
REMARK  192  A    between atoms: _452  and  _455
REMARK  193  A    between atoms: _455  and  _456
REMARK  194  A    between atoms: _459  and  _461
REMARK  195  A    between atoms: _461  and  _462
REMARK  196  A    between atoms: _464  and  _466
REMARK  197  A    between atoms: _466  and  _467
REMARK  198  A    between atoms: _469  and  _471
REMARK  199  A    between atoms: _471  and  _472
REMARK  200  A    between atoms: _471  and  _474
REMARK  201  A    between atoms: _474  and  _475
REMARK  202  A    between atoms: _478  and  _480
REMARK  203  A    between atoms: _480  and  _481
REMARK  204  A    between atoms: _483  and  _485
REMARK  205  A    between atoms: _485  and  _486
REMARK  206  A    between atoms: _488  and  _490
REMARK  207  A    between atoms: _490  and  _491
REMARK  208  A    between atoms: _490  and  _493
REMARK  209  A    between atoms: _493  and  _494
REMARK  210  A    between atoms: _500  and  _502
REMARK  211  A    between atoms: _502  and  _503
REMARK  212  A    between atoms: _502  and  _505
REMARK  213  A    between atoms: _505  and  _506
REMARK  214  A    between atoms: _509  and  _511
REMARK  215  A    between atoms: _511  and  _512
REMARK  216  A    between atoms: _511  and  _514
REMARK  217  A    between atoms: _517  and  _519
REMARK  218  A    between atoms: _519  and  _520
REMARK  219  A    between atoms: _519  and  _522
REMARK  220  A    between atoms: _522  and  _523
REMARK  221  A    between atoms: _523  and  _524
REMARK  222  A    between atoms: _529  and  _531
REMARK  223  A    between atoms: _531  and  _532
REMARK  224  A    between atoms: _531  and  _534
REMARK  225  A    between atoms: _534  and  _535
REMARK  226  A    between atoms: _539  and  _540
REMARK  227  A    between atoms: _545  and  _547
REMARK  228  A    between atoms: _547  and  _548
REMARK  229  A    between atoms: _547  and  _550
REMARK  230  A    between atoms: _550  and  _551
REMARK  231  A    between atoms: _555  and  _556
REMARK  232  A    between atoms: _561  and  _563
REMARK  233  A    between atoms: _563  and  _564
REMARK  234  A    between atoms: _563  and  _566
REMARK  235  A    between atoms: _569  and  _571
REMARK  236  A    between atoms: _571  and  _572
REMARK  237  A    between atoms: _571  and  _574
REMARK  238  A    between atoms: _574  and  _575
REMARK  239  A    between atoms: _580  and  _582
REMARK  240  A    between atoms: _582  and  _583
REMARK  241  A    between atoms: _582  and  _585
REMARK  242  A    between atoms: _585  and  _586
REMARK  243  A    between atoms: _589  and  _591
REMARK  244  A    between atoms: _591  and  _592
REMARK  245  A    between atoms: _591  and  _594
REMARK  246  A    between atoms: _594  and  _595
REMARK  247  A    between atoms: _598  and  _600
REMARK  248  A    between atoms: _600  and  _601
REMARK  249  A    between atoms: _603  and  _605
REMARK  250  A    between atoms: _605  and  _606
REMARK  251  A    between atoms: _605  and  _608
REMARK  252  A    between atoms: _608  and  _609
REMARK  253  A    between atoms: _609  and  _610
REMARK  254  A    between atoms: _610  and  _611
REMARK                            x       y       z     vdW  Elec       q    Type
REMARK                         _______ _______ _______ _____ _____    ______ ____
ROOT
ATOM      1  O   HOH     1     -14.407 -16.113   0.129  0.00  0.00    +0.000 OA
ENDROOT
TORSDOF 0
REMARK  Name = ../refined-set-2016/2p3c/2p3c_pocket.pdb
REMARK  254 active torsions:
REMARK  status: ('A' for Active; 'I' for Inactive)
REMARK    1  A    between atoms: _1  and  _3
REMARK    2  A    between atoms: _3  and  _4
REMARK    3  A    between atoms: _3  and  _6
REMARK    4  A    between atoms: _6  and  _7
REMARK    5  A    between atoms: _7  and  _8
REMARK    6  A    between atoms: _8  and  _9
REMARK    7  A    between atoms: _9  and  _10
REMARK    8  A    between atoms: _14  and  _16
REMARK    9  A    between atoms: _16  and  _17
REMARK   10  A    between atoms: _16  and  _19
REMARK   11  A    between atoms: _19  and  _20
REMARK   12  A    between atoms: _20  and  _21
REMARK   13  A    between atoms: _21  and  _22
REMARK   14  A    between atoms: _31  and  _33
REMARK   15  A    between atoms: _33  and  _34
REMARK   16  A    between atoms: _33  and  _36
REMARK   17  A    between atoms: _36  and  _37
REMARK   18  A    between atoms: _40  and  _42
REMARK   19  A    between atoms: _42  and  _43
REMARK   20  A    between atoms: _42  and  _45
REMARK   21  A    between atoms: _45  and  _46
REMARK   22  A    between atoms: _49  and  _51
REMARK   23  A    between atoms: _51  and  _52
REMARK   24  A    between atoms: _51  and  _54
REMARK   25  A    between atoms: _54  and  _55
REMARK   26  A    between atoms: _58  and  _60
REMARK   27  A    between atoms: _60  and  _61
REMARK   28  A    between atoms: _60  and  _63
REMARK   29  A    between atoms: _63  and  _64
REMARK   30  A    between atoms: _67  and  _69
REMARK   31  A    between atoms: _69  and  _70
REMARK   32  A    between atoms: _72  and  _74
REMARK   33  A    between atoms: _74  and  _75
REMARK   34  A    between atoms: _78  and  _80
REMARK   35  A    between atoms: _80  and  _81
REMARK   36  A    between atoms: _80  and  _83
REMARK   37  A    between atoms: _83  and  _84
REMARK   38  A    between atoms: _87  and  _89
REMARK   39  A    between atoms: _89  and  _90
REMARK   40  A    between atoms: _89  and  _92
REMARK   41  A    between atoms: _92  and  _93
REMARK   42  A    between atoms: _96  and  _98
REMARK   43  A    between atoms: _98  and  _99
REMARK   44  A    between atoms: _98  and  _101
REMARK   45  A    between atoms: _101  and  _102
REMARK   46  A    between atoms: _105  and  _107
REMARK   47  A    between atoms: _107  and  _108
REMARK   48  A    between atoms: _107  and  _110
REMARK   49  A    between atoms: _113  and  _115
REMARK   50  A    between atoms: _115  and  _116
REMARK   51  A    between atoms: _115  and  _118
REMARK   52  A    between atoms: _118  and  _119
REMARK   53  A    between atoms: _119  and  _120
REMARK   54  A    between atoms: _120  and  _121
REMARK   55  A    between atoms: _121  and  _122
REMARK   56  A    between atoms: _126  and  _128
REMARK   57  A    between atoms: _128  and  _129
REMARK   58  A    between atoms: _128  and  _131
REMARK   59  A    between atoms: _131  and  _132
REMARK   60  A    between atoms: _132  and  _133
REMARK   61  A    between atoms: _135  and  _137
REMARK   62  A    between atoms: _137  and  _138
REMARK   63  A    between atoms: _137  and  _140
REMARK   64  A    between atoms: _140  and  _141
REMARK   65  A    between atoms: _144  and  _146
REMARK   66  A    between atoms: _146  and  _147
REMARK   67  A    between atoms: _149  and  _151
REMARK   68  A    between atoms: _151  and  _152
REMARK   69  A    between atoms: _154  and  _156
REMARK   70  A    between atoms: _156  and  _157
REMARK   71  A    between atoms: _156  and  _159
REMARK   72  A    between atoms: _159  and  _160
REMARK   73  A    between atoms: _163  and  _165
REMARK   74  A    between atoms: _165  and  _166
REMARK   75  A    between atoms: _168  and  _170
REMARK   76  A    between atoms: _170  and  _171
REMARK   77  A    between atoms: _173  and  _175
REMARK   78  A    between atoms: _175  and  _176
REMARK   79  A    between atoms: _175  and  _178
REMARK   80  A    between atoms: _178  and  _179
REMARK   81  A    between atoms: _185  and  _187
REMARK   82  A    between atoms: _187  and  _188
REMARK   83  A    between atoms: _187  and  _190
REMARK   84  A    between atoms: _190  and  _191
REMARK   85  A    between atoms: _194  and  _196
REMARK   86  A    between atoms: _196  and  _197
REMARK   87  A    between atoms: _196  and  _199
REMARK   88  A    between atoms: _202  and  _204
REMARK   89  A    between atoms: _204  and  _205
REMARK   90  A    between atoms: _204  and  _207
REMARK   91  A    between atoms: _207  and  _208
REMARK   92  A    between atoms: _208  and  _209
REMARK   93  A    between atoms: _214  and  _216
REMARK   94  A    between atoms: _216  and  _217
REMARK   95  A    between atoms: _216  and  _219
REMARK   96  A    between atoms: _219  and  _220
REMARK   97  A    between atoms: _224  and  _225
REMARK   98  A    between atoms: _230  and  _232
REMARK   99  A    between atoms: _232  and  _233
REMARK  100  A    between atoms: _232  and  _235
REMARK  101  A    between atoms: _235  and  _236
REMARK  102  A    between atoms: _240  and  _241
REMARK  103  A    between atoms: _246  and  _248
REMARK  104  A    between atoms: _248  and  _249
REMARK  105  A    between atoms: _248  and  _251
REMARK  106  A    between atoms: _254  and  _256
REMARK  107  A    between atoms: _256  and  _257
REMARK  108  A    between atoms: _256  and  _259
REMARK  109  A    between atoms: _259  and  _260
REMARK  110  A    between atoms: _265  and  _267
REMARK  111  A    between atoms: _267  and  _268
REMARK  112  A    between atoms: _267  and  _270
REMARK  113  A    between atoms: _270  and  _271
REMARK  114  A    between atoms: _274  and  _276
REMARK  115  A    between atoms: _276  and  _277
REMARK  116  A    between atoms: _276  and  _279
REMARK  117  A    between atoms: _279  and  _280
REMARK  118  A    between atoms: _283  and  _285
REMARK  119  A    between atoms: _285  and  _286
REMARK  120  A    between atoms: _288  and  _290
REMARK  121  A    between atoms: _290  and  _291
REMARK  122  A    between atoms: _290  and  _293
REMARK  123  A    between atoms: _293  and  _294
REMARK  124  A    between atoms: _294  and  _295
REMARK  125  A    between atoms: _295  and  _296
REMARK  126  A    between atoms: _305  and  _307
REMARK  127  A    between atoms: _307  and  _308
REMARK  128  A    between atoms: _307  and  _310
REMARK  129  A    between atoms: _310  and  _311
REMARK  130  A    between atoms: _316  and  _318
REMARK  131  A    between atoms: _318  and  _319
REMARK  132  A    between atoms: _318  and  _321
REMARK  133  A    between atoms: _321  and  _322
REMARK  134  A    between atoms: _322  and  _323
REMARK  135  A    between atoms: _323  and  _324
REMARK  136  A    between atoms: _324  and  _325
REMARK  137  A    between atoms: _329  and  _331
REMARK  138  A    between atoms: _331  and  _332
REMARK  139  A    between atoms: _331  and  _334
REMARK  140  A    between atoms: _334  and  _335
REMARK  141  A    between atoms: _335  and  _336
REMARK  142  A    between atoms: _336  and  _337
REMARK  143  A    between atoms: _346  and  _348
REMARK  144  A    between atoms: _348  and  _349
REMARK  145  A    between atoms: _348  and  _351
REMARK  146  A    between atoms: _351  and  _352
REMARK  147  A    between atoms: _355  and  _357
REMARK  148  A    between atoms: _357  and  _358
REMARK  149  A    between atoms: _357  and  _360
REMARK  150  A    between atoms: _360  and  _361
REMARK  151  A    between atoms: _364  and  _366
REMARK  152  A    between atoms: _366  and  _367
REMARK  153  A    between atoms: _366  and  _369
REMARK  154  A    between atoms: _369  and  _370
REMARK  155  A    between atoms: _373  and  _375
REMARK  156  A    between atoms: _375  and  _376
REMARK  157  A    between atoms: _375  and  _378
REMARK  158  A    between atoms: _378  and  _379
REMARK  159  A    between atoms: _382  and  _384
REMARK  160  A    between atoms: _384  and  _385
REMARK  161  A    between atoms: _387  and  _389
REMARK  162  A    between atoms: _389  and  _390
REMARK  163  A    between atoms: _393  and  _395
REMARK  164  A    between atoms: _395  and  _396
REMARK  165  A    between atoms: _395  and  _398
REMARK  166  A    between atoms: _398  and  _399
REMARK  167  A    between atoms: _402  and  _404
REMARK  168  A    between atoms: _404  and  _405
REMARK  169  A    between atoms: _404  and  _407
REMARK  170  A    between atoms: _407  and  _408
REMARK  171  A    between atoms: _411  and  _413
REMARK  172  A    between atoms: _413  and  _414
REMARK  173  A    between atoms: _413  and  _416
REMARK  174  A    between atoms: _416  and  _417
REMARK  175  A    between atoms: _420  and  _422
REMARK  176  A    between atoms: _422  and  _423
REMARK  177  A    between atoms: _422  and  _425
REMARK  178  A    between atoms: _428  and  _430
REMARK  179  A    between atoms: _430  and  _431
REMARK  180  A    between atoms: _430  and  _433
REMARK  181  A    between atoms: _433  and  _434
REMARK  182  A    between atoms: _434  and  _435
REMARK  183  A    between atoms: _435  and  _436
REMARK  184  A    between atoms: _436  and  _437
REMARK  185  A    between atoms: _441  and  _443
REMARK  186  A    between atoms: _443  and  _444
REMARK  187  A    between atoms: _443  and  _446
REMARK  188  A    between atoms: _446  and  _447
REMARK  189  A    between atoms: _447  and  _448
REMARK  190  A    between atoms: _450  and  _452
REMARK  191  A    between atoms: _452  and  _453
REMARK  192  A    between atoms: _452  and  _455
REMARK  193  A    between atoms: _455  and  _456
REMARK  194  A    between atoms: _459  and  _461
REMARK  195  A    between atoms: _461  and  _462
REMARK  196  A    between atoms: _464  and  _466
REMARK  197  A    between atoms: _466  and  _467
REMARK  198  A    between atoms: _469  and  _471
REMARK  199  A    between atoms: _471  and  _472
REMARK  200  A    between atoms: _471  and  _474
REMARK  201  A    between atoms: _474  and  _475
REMARK  202  A    between atoms: _478  and  _480
REMARK  203  A    between atoms: _480  and  _481
REMARK  204  A    between atoms: _483  and  _485
REMARK  205  A    between atoms: _485  and  _486
REMARK  206  A    between atoms: _488  and  _490
REMARK  207  A    between atoms: _490  and  _491
REMARK  208  A    between atoms: _490  and  _493
REMARK  209  A    between atoms: _493  and  _494
REMARK  210  A    between atoms: _500  and  _502
REMARK  211  A    between atoms: _502  and  _503
REMARK  212  A    between atoms: _502  and  _505
REMARK  213  A    between atoms: _505  and  _506
REMARK  214  A    between atoms: _509  and  _511
REMARK  215  A    between atoms: _511  and  _512
REMARK  216  A    between atoms: _511  and  _514
REMARK  217  A    between atoms: _517  and  _519
REMARK  218  A    between atoms: _519  and  _520
REMARK  219  A    between atoms: _519  and  _522
REMARK  220  A    between atoms: _522  and  _523
REMARK  221  A    between atoms: _523  and  _524
REMARK  222  A    between atoms: _529  and  _531
REMARK  223  A    between atoms: _531  and  _532
REMARK  224  A    between atoms: _531  and  _534
REMARK  225  A    between atoms: _534  and  _535
REMARK  226  A    between atoms: _539  and  _540
REMARK  227  A    between atoms: _545  and  _547
REMARK  228  A    between atoms: _547  and  _548
REMARK  229  A    between atoms: _547  and  _550
REMARK  230  A    between atoms: _550  and  _551
REMARK  231  A    between atoms: _555  and  _556
REMARK  232  A    between atoms: _561  and  _563
REMARK  233  A    between atoms: _563  and  _564
REMARK  234  A    between atoms: _563  and  _566
REMARK  235  A    between atoms: _569  and  _571
REMARK  236  A    between atoms: _571  and  _572
REMARK  237  A    between atoms: _571  and  _574
REMARK  238  A    between atoms: _574  and  _575
REMARK  239  A    between atoms: _580  and  _582
REMARK  240  A    between atoms: _582  and  _583
REMARK  241  A    between atoms: _582  and  _585
REMARK  242  A    between atoms: _585  and  _586
REMARK  243  A    between atoms: _589  and  _591
REMARK  244  A    between atoms: _591  and  _592
REMARK  245  A    between atoms: _591  and  _594
REMARK  246  A    between atoms: _594  and  _595
REMARK  247  A    between atoms: _598  and  _600
REMARK  248  A    between atoms: _600  and  _601
REMARK  249  A    between atoms: _603  and  _605
REMARK  250  A    between atoms: _605  and  _606
REMARK  251  A    between atoms: _605  and  _608
REMARK  252  A    between atoms: _608  and  _609
REMARK  253  A    between atoms: _609  and  _610
REMARK  254  A    between atoms: _610  and  _611
REMARK                            x       y       z     vdW  Elec       q    Type
REMARK                         _______ _______ _______ _____ _____    ______ ____
ROOT
ATOM      1  O   HOH     1      -3.526 -20.866  16.827  0.00  0.00    +0.000 OA
ENDROOT
TORSDOF 0
REMARK  Name = ../refined-set-2016/2p3c/2p3c_pocket.pdb
REMARK  254 active torsions:
REMARK  status: ('A' for Active; 'I' for Inactive)
REMARK    1  A    between atoms: _1  and  _3
REMARK    2  A    between atoms: _3  and  _4
REMARK    3  A    between atoms: _3  and  _6
REMARK    4  A    between atoms: _6  and  _7
REMARK    5  A    between atoms: _7  and  _8
REMARK    6  A    between atoms: _8  and  _9
REMARK    7  A    between atoms: _9  and  _10
REMARK    8  A    between atoms: _14  and  _16
REMARK    9  A    between atoms: _16  and  _17
REMARK   10  A    between atoms: _16  and  _19
REMARK   11  A    between atoms: _19  and  _20
REMARK   12  A    between atoms: _20  and  _21
REMARK   13  A    between atoms: _21  and  _22
REMARK   14  A    between atoms: _31  and  _33
REMARK   15  A    between atoms: _33  and  _34
REMARK   16  A    between atoms: _33  and  _36
REMARK   17  A    between atoms: _36  and  _37
REMARK   18  A    between atoms: _40  and  _42
REMARK   19  A    between atoms: _42  and  _43
REMARK   20  A    between atoms: _42  and  _45
REMARK   21  A    between atoms: _45  and  _46
REMARK   22  A    between atoms: _49  and  _51
REMARK   23  A    between atoms: _51  and  _52
REMARK   24  A    between atoms: _51  and  _54
REMARK   25  A    between atoms: _54  and  _55
REMARK   26  A    between atoms: _58  and  _60
REMARK   27  A    between atoms: _60  and  _61
REMARK   28  A    between atoms: _60  and  _63
REMARK   29  A    between atoms: _63  and  _64
REMARK   30  A    between atoms: _67  and  _69
REMARK   31  A    between atoms: _69  and  _70
REMARK   32  A    between atoms: _72  and  _74
REMARK   33  A    between atoms: _74  and  _75
REMARK   34  A    between atoms: _78  and  _80
REMARK   35  A    between atoms: _80  and  _81
REMARK   36  A    between atoms: _80  and  _83
REMARK   37  A    between atoms: _83  and  _84
REMARK   38  A    between atoms: _87  and  _89
REMARK   39  A    between atoms: _89  and  _90
REMARK   40  A    between atoms: _89  and  _92
REMARK   41  A    between atoms: _92  and  _93
REMARK   42  A    between atoms: _96  and  _98
REMARK   43  A    between atoms: _98  and  _99
REMARK   44  A    between atoms: _98  and  _101
REMARK   45  A    between atoms: _101  and  _102
REMARK   46  A    between atoms: _105  and  _107
REMARK   47  A    between atoms: _107  and  _108
REMARK   48  A    between atoms: _107  and  _110
REMARK   49  A    between atoms: _113  and  _115
REMARK   50  A    between atoms: _115  and  _116
REMARK   51  A    between atoms: _115  and  _118
REMARK   52  A    between atoms: _118  and  _119
REMARK   53  A    between atoms: _119  and  _120
REMARK   54  A    between atoms: _120  and  _121
REMARK   55  A    between atoms: _121  and  _122
REMARK   56  A    between atoms: _126  and  _128
REMARK   57  A    between atoms: _128  and  _129
REMARK   58  A    between atoms: _128  and  _131
REMARK   59  A    between atoms: _131  and  _132
REMARK   60  A    between atoms: _132  and  _133
REMARK   61  A    between atoms: _135  and  _137
REMARK   62  A    between atoms: _137  and  _138
REMARK   63  A    between atoms: _137  and  _140
REMARK   64  A    between atoms: _140  and  _141
REMARK   65  A    between atoms: _144  and  _146
REMARK   66  A    between atoms: _146  and  _147
REMARK   67  A    between atoms: _149  and  _151
REMARK   68  A    between atoms: _151  and  _152
REMARK   69  A    between atoms: _154  and  _156
REMARK   70  A    between atoms: _156  and  _157
REMARK   71  A    between atoms: _156  and  _159
REMARK   72  A    between atoms: _159  and  _160
REMARK   73  A    between atoms: _163  and  _165
REMARK   74  A    between atoms: _165  and  _166
REMARK   75  A    between atoms: _168  and  _170
REMARK   76  A    between atoms: _170  and  _171
REMARK   77  A    between atoms: _173  and  _175
REMARK   78  A    between atoms: _175  and  _176
REMARK   79  A    between atoms: _175  and  _178
REMARK   80  A    between atoms: _178  and  _179
REMARK   81  A    between atoms: _185  and  _187
REMARK   82  A    between atoms: _187  and  _188
REMARK   83  A    between atoms: _187  and  _190
REMARK   84  A    between atoms: _190  and  _191
REMARK   85  A    between atoms: _194  and  _196
REMARK   86  A    between atoms: _196  and  _197
REMARK   87  A    between atoms: _196  and  _199
REMARK   88  A    between atoms: _202  and  _204
REMARK   89  A    between atoms: _204  and  _205
REMARK   90  A    between atoms: _204  and  _207
REMARK   91  A    between atoms: _207  and  _208
REMARK   92  A    between atoms: _208  and  _209
REMARK   93  A    between atoms: _214  and  _216
REMARK   94  A    between atoms: _216  and  _217
REMARK   95  A    between atoms: _216  and  _219
REMARK   96  A    between atoms: _219  and  _220
REMARK   97  A    between atoms: _224  and  _225
REMARK   98  A    between atoms: _230  and  _232
REMARK   99  A    between atoms: _232  and  _233
REMARK  100  A    between atoms: _232  and  _235
REMARK  101  A    between atoms: _235  and  _236
REMARK  102  A    between atoms: _240  and  _241
REMARK  103  A    between atoms: _246  and  _248
REMARK  104  A    between atoms: _248  and  _249
REMARK  105  A    between atoms: _248  and  _251
REMARK  106  A    between atoms: _254  and  _256
REMARK  107  A    between atoms: _256  and  _257
REMARK  108  A    between atoms: _256  and  _259
REMARK  109  A    between atoms: _259  and  _260
REMARK  110  A    between atoms: _265  and  _267
REMARK  111  A    between atoms: _267  and  _268
REMARK  112  A    between atoms: _267  and  _270
REMARK  113  A    between atoms: _270  and  _271
REMARK  114  A    between atoms: _274  and  _276
REMARK  115  A    between atoms: _276  and  _277
REMARK  116  A    between atoms: _276  and  _279
REMARK  117  A    between atoms: _279  and  _280
REMARK  118  A    between atoms: _283  and  _285
REMARK  119  A    between atoms: _285  and  _286
REMARK  120  A    between atoms: _288  and  _290
REMARK  121  A    between atoms: _290  and  _291
REMARK  122  A    between atoms: _290  and  _293
REMARK  123  A    between atoms: _293  and  _294
REMARK  124  A    between atoms: _294  and  _295
REMARK  125  A    between atoms: _295  and  _296
REMARK  126  A    between atoms: _305  and  _307
REMARK  127  A    between atoms: _307  and  _308
REMARK  128  A    between atoms: _307  and  _310
REMARK  129  A    between atoms: _310  and  _311
REMARK  130  A    between atoms: _316  and  _318
REMARK  131  A    between atoms: _318  and  _319
REMARK  132  A    between atoms: _318  and  _321
REMARK  133  A    between atoms: _321  and  _322
REMARK  134  A    between atoms: _322  and  _323
REMARK  135  A    between atoms: _323  and  _324
REMARK  136  A    between atoms: _324  and  _325
REMARK  137  A    between atoms: _329  and  _331
REMARK  138  A    between atoms: _331  and  _332
REMARK  139  A    between atoms: _331  and  _334
REMARK  140  A    between atoms: _334  and  _335
REMARK  141  A    between atoms: _335  and  _336
REMARK  142  A    between atoms: _336  and  _337
REMARK  143  A    between atoms: _346  and  _348
REMARK  144  A    between atoms: _348  and  _349
REMARK  145  A    between atoms: _348  and  _351
REMARK  146  A    between atoms: _351  and  _352
REMARK  147  A    between atoms: _355  and  _357
REMARK  148  A    between atoms: _357  and  _358
REMARK  149  A    between atoms: _357  and  _360
REMARK  150  A    between atoms: _360  and  _361
REMARK  151  A    between atoms: _364  and  _366
REMARK  152  A    between atoms: _366  and  _367
REMARK  153  A    between atoms: _366  and  _369
REMARK  154  A    between atoms: _369  and  _370
REMARK  155  A    between atoms: _373  and  _375
REMARK  156  A    between atoms: _375  and  _376
REMARK  157  A    between atoms: _375  and  _378
REMARK  158  A    between atoms: _378  and  _379
REMARK  159  A    between atoms: _382  and  _384
REMARK  160  A    between atoms: _384  and  _385
REMARK  161  A    between atoms: _387  and  _389
REMARK  162  A    between atoms: _389  and  _390
REMARK  163  A    between atoms: _393  and  _395
REMARK  164  A    between atoms: _395  and  _396
REMARK  165  A    between atoms: _395  and  _398
REMARK  166  A    between atoms: _398  and  _399
REMARK  167  A    between atoms: _402  and  _404
REMARK  168  A    between atoms: _404  and  _405
REMARK  169  A    between atoms: _404  and  _407
REMARK  170  A    between atoms: _407  and  _408
REMARK  171  A    between atoms: _411  and  _413
REMARK  172  A    between atoms: _413  and  _414
REMARK  173  A    between atoms: _413  and  _416
REMARK  174  A    between atoms: _416  and  _417
REMARK  175  A    between atoms: _420  and  _422
REMARK  176  A    between atoms: _422  and  _423
REMARK  177  A    between atoms: _422  and  _425
REMARK  178  A    between atoms: _428  and  _430
REMARK  179  A    between atoms: _430  and  _431
REMARK  180  A    between atoms: _430  and  _433
REMARK  181  A    between atoms: _433  and  _434
REMARK  182  A    between atoms: _434  and  _435
REMARK  183  A    between atoms: _435  and  _436
REMARK  184  A    between atoms: _436  and  _437
REMARK  185  A    between atoms: _441  and  _443
REMARK  186  A    between atoms: _443  and  _444
REMARK  187  A    between atoms: _443  and  _446
REMARK  188  A    between atoms: _446  and  _447
REMARK  189  A    between atoms: _447  and  _448
REMARK  190  A    between atoms: _450  and  _452
REMARK  191  A    between atoms: _452  and  _453
REMARK  192  A    between atoms: _452  and  _455
REMARK  193  A    between atoms: _455  and  _456
REMARK  194  A    between atoms: _459  and  _461
REMARK  195  A    between atoms: _461  and  _462
REMARK  196  A    between atoms: _464  and  _466
REMARK  197  A    between atoms: _466  and  _467
REMARK  198  A    between atoms: _469  and  _471
REMARK  199  A    between atoms: _471  and  _472
REMARK  200  A    between atoms: _471  and  _474
REMARK  201  A    between atoms: _474  and  _475
REMARK  202  A    between atoms: _478  and  _480
REMARK  203  A    between atoms: _480  and  _481
REMARK  204  A    between atoms: _483  and  _485
REMARK  205  A    between atoms: _485  and  _486
REMARK  206  A    between atoms: _488  and  _490
REMARK  207  A    between atoms: _490  and  _491
REMARK  208  A    between atoms: _490  and  _493
REMARK  209  A    between atoms: _493  and  _494
REMARK  210  A    between atoms: _500  and  _502
REMARK  211  A    between atoms: _502  and  _503
REMARK  212  A    between atoms: _502  and  _505
REMARK  213  A    between atoms: _505  and  _506
REMARK  214  A    between atoms: _509  and  _511
REMARK  215  A    between atoms: _511  and  _512
REMARK  216  A    between atoms: _511  and  _514
REMARK  217  A    between atoms: _517  and  _519
REMARK  218  A    between atoms: _519  and  _520
REMARK  219  A    between atoms: _519  and  _522
REMARK  220  A    between atoms: _522  and  _523
REMARK  221  A    between atoms: _523  and  _524
REMARK  222  A    between atoms: _529  and  _531
REMARK  223  A    between atoms: _531  and  _532
REMARK  224  A    between atoms: _531  and  _534
REMARK  225  A    between atoms: _534  and  _535
REMARK  226  A    between atoms: _539  and  _540
REMARK  227  A    between atoms: _545  and  _547
REMARK  228  A    between atoms: _547  and  _548
REMARK  229  A    between atoms: _547  and  _550
REMARK  230  A    between atoms: _550  and  _551
REMARK  231  A    between atoms: _555  and  _556
REMARK  232  A    between atoms: _561  and  _563
REMARK  233  A    between atoms: _563  and  _564
REMARK  234  A    between atoms: _563  and  _566
REMARK  235  A    between atoms: _569  and  _571
REMARK  236  A    between atoms: _571  and  _572
REMARK  237  A    between atoms: _571  and  _574
REMARK  238  A    between atoms: _574  and  _575
REMARK  239  A    between atoms: _580  and  _582
REMARK  240  A    between atoms: _582  and  _583
REMARK  241  A    between atoms: _582  and  _585
REMARK  242  A    between atoms: _585  and  _586
REMARK  243  A    between atoms: _589  and  _591
REMARK  244  A    between atoms: _591  and  _592
REMARK  245  A    between atoms: _591  and  _594
REMARK  246  A    between atoms: _594  and  _595
REMARK  247  A    between atoms: _598  and  _600
REMARK  248  A    between atoms: _600  and  _601
REMARK  249  A    between atoms: _603  and  _605
REMARK  250  A    between atoms: _605  and  _606
REMARK  251  A    between atoms: _605  and  _608
REMARK  252  A    between atoms: _608  and  _609
REMARK  253  A    between atoms: _609  and  _610
REMARK  254  A    between atoms: _610  and  _611
REMARK                            x       y       z     vdW  Elec       q    Type
REMARK                         _______ _______ _______ _____ _____    ______ ____
ROOT
ATOM      1  O   HOH     1      -8.811  -6.552  -0.264  0.00  0.00    +0.000 OA
ENDROOT
TORSDOF 0
REMARK  Name = ../refined-set-2016/2p3c/2p3c_pocket.pdb
REMARK  254 active torsions:
REMARK  status: ('A' for Active; 'I' for Inactive)
REMARK    1  A    between atoms: _1  and  _3
REMARK    2  A    between atoms: _3  and  _4
REMARK    3  A    between atoms: _3  and  _6
REMARK    4  A    between atoms: _6  and  _7
REMARK    5  A    between atoms: _7  and  _8
REMARK    6  A    between atoms: _8  and  _9
REMARK    7  A    between atoms: _9  and  _10
REMARK    8  A    between atoms: _14  and  _16
REMARK    9  A    between atoms: _16  and  _17
REMARK   10  A    between atoms: _16  and  _19
REMARK   11  A    between atoms: _19  and  _20
REMARK   12  A    between atoms: _20  and  _21
REMARK   13  A    between atoms: _21  and  _22
REMARK   14  A    between atoms: _31  and  _33
REMARK   15  A    between atoms: _33  and  _34
REMARK   16  A    between atoms: _33  and  _36
REMARK   17  A    between atoms: _36  and  _37
REMARK   18  A    between atoms: _40  and  _42
REMARK   19  A    between atoms: _42  and  _43
REMARK   20  A    between atoms: _42  and  _45
REMARK   21  A    between atoms: _45  and  _46
REMARK   22  A    between atoms: _49  and  _51
REMARK   23  A    between atoms: _51  and  _52
REMARK   24  A    between atoms: _51  and  _54
REMARK   25  A    between atoms: _54  and  _55
REMARK   26  A    between atoms: _58  and  _60
REMARK   27  A    between atoms: _60  and  _61
REMARK   28  A    between atoms: _60  and  _63
REMARK   29  A    between atoms: _63  and  _64
REMARK   30  A    between atoms: _67  and  _69
REMARK   31  A    between atoms: _69  and  _70
REMARK   32  A    between atoms: _72  and  _74
REMARK   33  A    between atoms: _74  and  _75
REMARK   34  A    between atoms: _78  and  _80
REMARK   35  A    between atoms: _80  and  _81
REMARK   36  A    between atoms: _80  and  _83
REMARK   37  A    between atoms: _83  and  _84
REMARK   38  A    between atoms: _87  and  _89
REMARK   39  A    between atoms: _89  and  _90
REMARK   40  A    between atoms: _89  and  _92
REMARK   41  A    between atoms: _92  and  _93
REMARK   42  A    between atoms: _96  and  _98
REMARK   43  A    between atoms: _98  and  _99
REMARK   44  A    between atoms: _98  and  _101
REMARK   45  A    between atoms: _101  and  _102
REMARK   46  A    between atoms: _105  and  _107
REMARK   47  A    between atoms: _107  and  _108
REMARK   48  A    between atoms: _107  and  _110
REMARK   49  A    between atoms: _113  and  _115
REMARK   50  A    between atoms: _115  and  _116
REMARK   51  A    between atoms: _115  and  _118
REMARK   52  A    between atoms: _118  and  _119
REMARK   53  A    between atoms: _119  and  _120
REMARK   54  A    between atoms: _120  and  _121
REMARK   55  A    between atoms: _121  and  _122
REMARK   56  A    between atoms: _126  and  _128
REMARK   57  A    between atoms: _128  and  _129
REMARK   58  A    between atoms: _128  and  _131
REMARK   59  A    between atoms: _131  and  _132
REMARK   60  A    between atoms: _132  and  _133
REMARK   61  A    between atoms: _135  and  _137
REMARK   62  A    between atoms: _137  and  _138
REMARK   63  A    between atoms: _137  and  _140
REMARK   64  A    between atoms: _140  and  _141
REMARK   65  A    between atoms: _144  and  _146
REMARK   66  A    between atoms: _146  and  _147
REMARK   67  A    between atoms: _149  and  _151
REMARK   68  A    between atoms: _151  and  _152
REMARK   69  A    between atoms: _154  and  _156
REMARK   70  A    between atoms: _156  and  _157
REMARK   71  A    between atoms: _156  and  _159
REMARK   72  A    between atoms: _159  and  _160
REMARK   73  A    between atoms: _163  and  _165
REMARK   74  A    between atoms: _165  and  _166
REMARK   75  A    between atoms: _168  and  _170
REMARK   76  A    between atoms: _170  and  _171
REMARK   77  A    between atoms: _173  and  _175
REMARK   78  A    between atoms: _175  and  _176
REMARK   79  A    between atoms: _175  and  _178
REMARK   80  A    between atoms: _178  and  _179
REMARK   81  A    between atoms: _185  and  _187
REMARK   82  A    between atoms: _187  and  _188
REMARK   83  A    between atoms: _187  and  _190
REMARK   84  A    between atoms: _190  and  _191
REMARK   85  A    between atoms: _194  and  _196
REMARK   86  A    between atoms: _196  and  _197
REMARK   87  A    between atoms: _196  and  _199
REMARK   88  A    between atoms: _202  and  _204
REMARK   89  A    between atoms: _204  and  _205
REMARK   90  A    between atoms: _204  and  _207
REMARK   91  A    between atoms: _207  and  _208
REMARK   92  A    between atoms: _208  and  _209
REMARK   93  A    between atoms: _214  and  _216
REMARK   94  A    between atoms: _216  and  _217
REMARK   95  A    between atoms: _216  and  _219
REMARK   96  A    between atoms: _219  and  _220
REMARK   97  A    between atoms: _224  and  _225
REMARK   98  A    between atoms: _230  and  _232
REMARK   99  A    between atoms: _232  and  _233
REMARK  100  A    between atoms: _232  and  _235
REMARK  101  A    between atoms: _235  and  _236
REMARK  102  A    between atoms: _240  and  _241
REMARK  103  A    between atoms: _246  and  _248
REMARK  104  A    between atoms: _248  and  _249
REMARK  105  A    between atoms: _248  and  _251
REMARK  106  A    between atoms: _254  and  _256
REMARK  107  A    between atoms: _256  and  _257
REMARK  108  A    between atoms: _256  and  _259
REMARK  109  A    between atoms: _259  and  _260
REMARK  110  A    between atoms: _265  and  _267
REMARK  111  A    between atoms: _267  and  _268
REMARK  112  A    between atoms: _267  and  _270
REMARK  113  A    between atoms: _270  and  _271
REMARK  114  A    between atoms: _274  and  _276
REMARK  115  A    between atoms: _276  and  _277
REMARK  116  A    between atoms: _276  and  _279
REMARK  117  A    between atoms: _279  and  _280
REMARK  118  A    between atoms: _283  and  _285
REMARK  119  A    between atoms: _285  and  _286
REMARK  120  A    between atoms: _288  and  _290
REMARK  121  A    between atoms: _290  and  _291
REMARK  122  A    between atoms: _290  and  _293
REMARK  123  A    between atoms: _293  and  _294
REMARK  124  A    between atoms: _294  and  _295
REMARK  125  A    between atoms: _295  and  _296
REMARK  126  A    between atoms: _305  and  _307
REMARK  127  A    between atoms: _307  and  _308
REMARK  128  A    between atoms: _307  and  _310
REMARK  129  A    between atoms: _310  and  _311
REMARK  130  A    between atoms: _316  and  _318
REMARK  131  A    between atoms: _318  and  _319
REMARK  132  A    between atoms: _318  and  _321
REMARK  133  A    between atoms: _321  and  _322
REMARK  134  A    between atoms: _322  and  _323
REMARK  135  A    between atoms: _323  and  _324
REMARK  136  A    between atoms: _324  and  _325
REMARK  137  A    between atoms: _329  and  _331
REMARK  138  A    between atoms: _331  and  _332
REMARK  139  A    between atoms: _331  and  _334
REMARK  140  A    between atoms: _334  and  _335
REMARK  141  A    between atoms: _335  and  _336
REMARK  142  A    between atoms: _336  and  _337
REMARK  143  A    between atoms: _346  and  _348
REMARK  144  A    between atoms: _348  and  _349
REMARK  145  A    between atoms: _348  and  _351
REMARK  146  A    between atoms: _351  and  _352
REMARK  147  A    between atoms: _355  and  _357
REMARK  148  A    between atoms: _357  and  _358
REMARK  149  A    between atoms: _357  and  _360
REMARK  150  A    between atoms: _360  and  _361
REMARK  151  A    between atoms: _364  and  _366
REMARK  152  A    between atoms: _366  and  _367
REMARK  153  A    between atoms: _366  and  _369
REMARK  154  A    between atoms: _369  and  _370
REMARK  155  A    between atoms: _373  and  _375
REMARK  156  A    between atoms: _375  and  _376
REMARK  157  A    between atoms: _375  and  _378
REMARK  158  A    between atoms: _378  and  _379
REMARK  159  A    between atoms: _382  and  _384
REMARK  160  A    between atoms: _384  and  _385
REMARK  161  A    between atoms: _387  and  _389
REMARK  162  A    between atoms: _389  and  _390
REMARK  163  A    between atoms: _393  and  _395
REMARK  164  A    between atoms: _395  and  _396
REMARK  165  A    between atoms: _395  and  _398
REMARK  166  A    between atoms: _398  and  _399
REMARK  167  A    between atoms: _402  and  _404
REMARK  168  A    between atoms: _404  and  _405
REMARK  169  A    between atoms: _404  and  _407
REMARK  170  A    between atoms: _407  and  _408
REMARK  171  A    between atoms: _411  and  _413
REMARK  172  A    between atoms: _413  and  _414
REMARK  173  A    between atoms: _413  and  _416
REMARK  174  A    between atoms: _416  and  _417
REMARK  175  A    between atoms: _420  and  _422
REMARK  176  A    between atoms: _422  and  _423
REMARK  177  A    between atoms: _422  and  _425
REMARK  178  A    between atoms: _428  and  _430
REMARK  179  A    between atoms: _430  and  _431
REMARK  180  A    between atoms: _430  and  _433
REMARK  181  A    between atoms: _433  and  _434
REMARK  182  A    between atoms: _434  and  _435
REMARK  183  A    between atoms: _435  and  _436
REMARK  184  A    between atoms: _436  and  _437
REMARK  185  A    between atoms: _441  and  _443
REMARK  186  A    between atoms: _443  and  _444
REMARK  187  A    between atoms: _443  and  _446
REMARK  188  A    between atoms: _446  and  _447
REMARK  189  A    between atoms: _447  and  _448
REMARK  190  A    between atoms: _450  and  _452
REMARK  191  A    between atoms: _452  and  _453
REMARK  192  A    between atoms: _452  and  _455
REMARK  193  A    between atoms: _455  and  _456
REMARK  194  A    between atoms: _459  and  _461
REMARK  195  A    between atoms: _461  and  _462
REMARK  196  A    between atoms: _464  and  _466
REMARK  197  A    between atoms: _466  and  _467
REMARK  198  A    between atoms: _469  and  _471
REMARK  199  A    between atoms: _471  and  _472
REMARK  200  A    between atoms: _471  and  _474
REMARK  201  A    between atoms: _474  and  _475
REMARK  202  A    between atoms: _478  and  _480
REMARK  203  A    between atoms: _480  and  _481
REMARK  204  A    between atoms: _483  and  _485
REMARK  205  A    between atoms: _485  and  _486
REMARK  206  A    between atoms: _488  and  _490
REMARK  207  A    between atoms: _490  and  _491
REMARK  208  A    between atoms: _490  and  _493
REMARK  209  A    between atoms: _493  and  _494
REMARK  210  A    between atoms: _500  and  _502
REMARK  211  A    between atoms: _502  and  _503
REMARK  212  A    between atoms: _502  and  _505
REMARK  213  A    between atoms: _505  and  _506
REMARK  214  A    between atoms: _509  and  _511
REMARK  215  A    between atoms: _511  and  _512
REMARK  216  A    between atoms: _511  and  _514
REMARK  217  A    between atoms: _517  and  _519
REMARK  218  A    between atoms: _519  and  _520
REMARK  219  A    between atoms: _519  and  _522
REMARK  220  A    between atoms: _522  and  _523
REMARK  221  A    between atoms: _523  and  _524
REMARK  222  A    between atoms: _529  and  _531
REMARK  223  A    between atoms: _531  and  _532
REMARK  224  A    between atoms: _531  and  _534
REMARK  225  A    between atoms: _534  and  _535
REMARK  226  A    between atoms: _539  and  _540
REMARK  227  A    between atoms: _545  and  _547
REMARK  228  A    between atoms: _547  and  _548
REMARK  229  A    between atoms: _547  and  _550
REMARK  230  A    between atoms: _550  and  _551
REMARK  231  A    between atoms: _555  and  _556
REMARK  232  A    between atoms: _561  and  _563
REMARK  233  A    between atoms: _563  and  _564
REMARK  234  A    between atoms: _563  and  _566
REMARK  235  A    between atoms: _569  and  _571
REMARK  236  A    between atoms: _571  and  _572
REMARK  237  A    between atoms: _571  and  _574
REMARK  238  A    between atoms: _574  and  _575
REMARK  239  A    between atoms: _580  and  _582
REMARK  240  A    between atoms: _582  and  _583
REMARK  241  A    between atoms: _582  and  _585
REMARK  242  A    between atoms: _585  and  _586
REMARK  243  A    between atoms: _589  and  _591
REMARK  244  A    between atoms: _591  and  _592
REMARK  245  A    between atoms: _591  and  _594
REMARK  246  A    between atoms: _594  and  _595
REMARK  247  A    between atoms: _598  and  _600
REMARK  248  A    between atoms: _600  and  _601
REMARK  249  A    between atoms: _603  and  _605
REMARK  250  A    between atoms: _605  and  _606
REMARK  251  A    between atoms: _605  and  _608
REMARK  252  A    between atoms: _608  and  _609
REMARK  253  A    between atoms: _609  and  _610
REMARK  254  A    between atoms: _610  and  _611
REMARK                            x       y       z     vdW  Elec       q    Type
REMARK                         _______ _______ _______ _____ _____    ______ ____
ROOT
ATOM      1  O   HOH     1     -12.269 -12.977   1.503  0.00  0.00    +0.000 OA
ENDROOT
TORSDOF 0
REMARK  Name = ../refined-set-2016/2p3c/2p3c_pocket.pdb
REMARK  254 active torsions:
REMARK  status: ('A' for Active; 'I' for Inactive)
REMARK    1  A    between atoms: _1  and  _3
REMARK    2  A    between atoms: _3  and  _4
REMARK    3  A    between atoms: _3  and  _6
REMARK    4  A    between atoms: _6  and  _7
REMARK    5  A    between atoms: _7  and  _8
REMARK    6  A    between atoms: _8  and  _9
REMARK    7  A    between atoms: _9  and  _10
REMARK    8  A    between atoms: _14  and  _16
REMARK    9  A    between atoms: _16  and  _17
REMARK   10  A    between atoms: _16  and  _19
REMARK   11  A    between atoms: _19  and  _20
REMARK   12  A    between atoms: _20  and  _21
REMARK   13  A    between atoms: _21  and  _22
REMARK   14  A    between atoms: _31  and  _33
REMARK   15  A    between atoms: _33  and  _34
REMARK   16  A    between atoms: _33  and  _36
REMARK   17  A    between atoms: _36  and  _37
REMARK   18  A    between atoms: _40  and  _42
REMARK   19  A    between atoms: _42  and  _43
REMARK   20  A    between atoms: _42  and  _45
REMARK   21  A    between atoms: _45  and  _46
REMARK   22  A    between atoms: _49  and  _51
REMARK   23  A    between atoms: _51  and  _52
REMARK   24  A    between atoms: _51  and  _54
REMARK   25  A    between atoms: _54  and  _55
REMARK   26  A    between atoms: _58  and  _60
REMARK   27  A    between atoms: _60  and  _61
REMARK   28  A    between atoms: _60  and  _63
REMARK   29  A    between atoms: _63  and  _64
REMARK   30  A    between atoms: _67  and  _69
REMARK   31  A    between atoms: _69  and  _70
REMARK   32  A    between atoms: _72  and  _74
REMARK   33  A    between atoms: _74  and  _75
REMARK   34  A    between atoms: _78  and  _80
REMARK   35  A    between atoms: _80  and  _81
REMARK   36  A    between atoms: _80  and  _83
REMARK   37  A    between atoms: _83  and  _84
REMARK   38  A    between atoms: _87  and  _89
REMARK   39  A    between atoms: _89  and  _90
REMARK   40  A    between atoms: _89  and  _92
REMARK   41  A    between atoms: _92  and  _93
REMARK   42  A    between atoms: _96  and  _98
REMARK   43  A    between atoms: _98  and  _99
REMARK   44  A    between atoms: _98  and  _101
REMARK   45  A    between atoms: _101  and  _102
REMARK   46  A    between atoms: _105  and  _107
REMARK   47  A    between atoms: _107  and  _108
REMARK   48  A    between atoms: _107  and  _110
REMARK   49  A    between atoms: _113  and  _115
REMARK   50  A    between atoms: _115  and  _116
REMARK   51  A    between atoms: _115  and  _118
REMARK   52  A    between atoms: _118  and  _119
REMARK   53  A    between atoms: _119  and  _120
REMARK   54  A    between atoms: _120  and  _121
REMARK   55  A    between atoms: _121  and  _122
REMARK   56  A    between atoms: _126  and  _128
REMARK   57  A    between atoms: _128  and  _129
REMARK   58  A    between atoms: _128  and  _131
REMARK   59  A    between atoms: _131  and  _132
REMARK   60  A    between atoms: _132  and  _133
REMARK   61  A    between atoms: _135  and  _137
REMARK   62  A    between atoms: _137  and  _138
REMARK   63  A    between atoms: _137  and  _140
REMARK   64  A    between atoms: _140  and  _141
REMARK   65  A    between atoms: _144  and  _146
REMARK   66  A    between atoms: _146  and  _147
REMARK   67  A    between atoms: _149  and  _151
REMARK   68  A    between atoms: _151  and  _152
REMARK   69  A    between atoms: _154  and  _156
REMARK   70  A    between atoms: _156  and  _157
REMARK   71  A    between atoms: _156  and  _159
REMARK   72  A    between atoms: _159  and  _160
REMARK   73  A    between atoms: _163  and  _165
REMARK   74  A    between atoms: _165  and  _166
REMARK   75  A    between atoms: _168  and  _170
REMARK   76  A    between atoms: _170  and  _171
REMARK   77  A    between atoms: _173  and  _175
REMARK   78  A    between atoms: _175  and  _176
REMARK   79  A    between atoms: _175  and  _178
REMARK   80  A    between atoms: _178  and  _179
REMARK   81  A    between atoms: _185  and  _187
REMARK   82  A    between atoms: _187  and  _188
REMARK   83  A    between atoms: _187  and  _190
REMARK   84  A    between atoms: _190  and  _191
REMARK   85  A    between atoms: _194  and  _196
REMARK   86  A    between atoms: _196  and  _197
REMARK   87  A    between atoms: _196  and  _199
REMARK   88  A    between atoms: _202  and  _204
REMARK   89  A    between atoms: _204  and  _205
REMARK   90  A    between atoms: _204  and  _207
REMARK   91  A    between atoms: _207  and  _208
REMARK   92  A    between atoms: _208  and  _209
REMARK   93  A    between atoms: _214  and  _216
REMARK   94  A    between atoms: _216  and  _217
REMARK   95  A    between atoms: _216  and  _219
REMARK   96  A    between atoms: _219  and  _220
REMARK   97  A    between atoms: _224  and  _225
REMARK   98  A    between atoms: _230  and  _232
REMARK   99  A    between atoms: _232  and  _233
REMARK  100  A    between atoms: _232  and  _235
REMARK  101  A    between atoms: _235  and  _236
REMARK  102  A    between atoms: _240  and  _241
REMARK  103  A    between atoms: _246  and  _248
REMARK  104  A    between atoms: _248  and  _249
REMARK  105  A    between atoms: _248  and  _251
REMARK  106  A    between atoms: _254  and  _256
REMARK  107  A    between atoms: _256  and  _257
REMARK  108  A    between atoms: _256  and  _259
REMARK  109  A    between atoms: _259  and  _260
REMARK  110  A    between atoms: _265  and  _267
REMARK  111  A    between atoms: _267  and  _268
REMARK  112  A    between atoms: _267  and  _270
REMARK  113  A    between atoms: _270  and  _271
REMARK  114  A    between atoms: _274  and  _276
REMARK  115  A    between atoms: _276  and  _277
REMARK  116  A    between atoms: _276  and  _279
REMARK  117  A    between atoms: _279  and  _280
REMARK  118  A    between atoms: _283  and  _285
REMARK  119  A    between atoms: _285  and  _286
REMARK  120  A    between atoms: _288  and  _290
REMARK  121  A    between atoms: _290  and  _291
REMARK  122  A    between atoms: _290  and  _293
REMARK  123  A    between atoms: _293  and  _294
REMARK  124  A    between atoms: _294  and  _295
REMARK  125  A    between atoms: _295  and  _296
REMARK  126  A    between atoms: _305  and  _307
REMARK  127  A    between atoms: _307  and  _308
REMARK  128  A    between atoms: _307  and  _310
REMARK  129  A    between atoms: _310  and  _311
REMARK  130  A    between atoms: _316  and  _318
REMARK  131  A    between atoms: _318  and  _319
REMARK  132  A    between atoms: _318  and  _321
REMARK  133  A    between atoms: _321  and  _322
REMARK  134  A    between atoms: _322  and  _323
REMARK  135  A    between atoms: _323  and  _324
REMARK  136  A    between atoms: _324  and  _325
REMARK  137  A    between atoms: _329  and  _331
REMARK  138  A    between atoms: _331  and  _332
REMARK  139  A    between atoms: _331  and  _334
REMARK  140  A    between atoms: _334  and  _335
REMARK  141  A    between atoms: _335  and  _336
REMARK  142  A    between atoms: _336  and  _337
REMARK  143  A    between atoms: _346  and  _348
REMARK  144  A    between atoms: _348  and  _349
REMARK  145  A    between atoms: _348  and  _351
REMARK  146  A    between atoms: _351  and  _352
REMARK  147  A    between atoms: _355  and  _357
REMARK  148  A    between atoms: _357  and  _358
REMARK  149  A    between atoms: _357  and  _360
REMARK  150  A    between atoms: _360  and  _361
REMARK  151  A    between atoms: _364  and  _366
REMARK  152  A    between atoms: _366  and  _367
REMARK  153  A    between atoms: _366  and  _369
REMARK  154  A    between atoms: _369  and  _370
REMARK  155  A    between atoms: _373  and  _375
REMARK  156  A    between atoms: _375  and  _376
REMARK  157  A    between atoms: _375  and  _378
REMARK  158  A    between atoms: _378  and  _379
REMARK  159  A    between atoms: _382  and  _384
REMARK  160  A    between atoms: _384  and  _385
REMARK  161  A    between atoms: _387  and  _389
REMARK  162  A    between atoms: _389  and  _390
REMARK  163  A    between atoms: _393  and  _395
REMARK  164  A    between atoms: _395  and  _396
REMARK  165  A    between atoms: _395  and  _398
REMARK  166  A    between atoms: _398  and  _399
REMARK  167  A    between atoms: _402  and  _404
REMARK  168  A    between atoms: _404  and  _405
REMARK  169  A    between atoms: _404  and  _407
REMARK  170  A    between atoms: _407  and  _408
REMARK  171  A    between atoms: _411  and  _413
REMARK  172  A    between atoms: _413  and  _414
REMARK  173  A    between atoms: _413  and  _416
REMARK  174  A    between atoms: _416  and  _417
REMARK  175  A    between atoms: _420  and  _422
REMARK  176  A    between atoms: _422  and  _423
REMARK  177  A    between atoms: _422  and  _425
REMARK  178  A    between atoms: _428  and  _430
REMARK  179  A    between atoms: _430  and  _431
REMARK  180  A    between atoms: _430  and  _433
REMARK  181  A    between atoms: _433  and  _434
REMARK  182  A    between atoms: _434  and  _435
REMARK  183  A    between atoms: _435  and  _436
REMARK  184  A    between atoms: _436  and  _437
REMARK  185  A    between atoms: _441  and  _443
REMARK  186  A    between atoms: _443  and  _444
REMARK  187  A    between atoms: _443  and  _446
REMARK  188  A    between atoms: _446  and  _447
REMARK  189  A    between atoms: _447  and  _448
REMARK  190  A    between atoms: _450  and  _452
REMARK  191  A    between atoms: _452  and  _453
REMARK  192  A    between atoms: _452  and  _455
REMARK  193  A    between atoms: _455  and  _456
REMARK  194  A    between atoms: _459  and  _461
REMARK  195  A    between atoms: _461  and  _462
REMARK  196  A    between atoms: _464  and  _466
REMARK  197  A    between atoms: _466  and  _467
REMARK  198  A    between atoms: _469  and  _471
REMARK  199  A    between atoms: _471  and  _472
REMARK  200  A    between atoms: _471  and  _474
REMARK  201  A    between atoms: _474  and  _475
REMARK  202  A    between atoms: _478  and  _480
REMARK  203  A    between atoms: _480  and  _481
REMARK  204  A    between atoms: _483  and  _485
REMARK  205  A    between atoms: _485  and  _486
REMARK  206  A    between atoms: _488  and  _490
REMARK  207  A    between atoms: _490  and  _491
REMARK  208  A    between atoms: _490  and  _493
REMARK  209  A    between atoms: _493  and  _494
REMARK  210  A    between atoms: _500  and  _502
REMARK  211  A    between atoms: _502  and  _503
REMARK  212  A    between atoms: _502  and  _505
REMARK  213  A    between atoms: _505  and  _506
REMARK  214  A    between atoms: _509  and  _511
REMARK  215  A    between atoms: _511  and  _512
REMARK  216  A    between atoms: _511  and  _514
REMARK  217  A    between atoms: _517  and  _519
REMARK  218  A    between atoms: _519  and  _520
REMARK  219  A    between atoms: _519  and  _522
REMARK  220  A    between atoms: _522  and  _523
REMARK  221  A    between atoms: _523  and  _524
REMARK  222  A    between atoms: _529  and  _531
REMARK  223  A    between atoms: _531  and  _532
REMARK  224  A    between atoms: _531  and  _534
REMARK  225  A    between atoms: _534  and  _535
REMARK  226  A    between atoms: _539  and  _540
REMARK  227  A    between atoms: _545  and  _547
REMARK  228  A    between atoms: _547  and  _548
REMARK  229  A    between atoms: _547  and  _550
REMARK  230  A    between atoms: _550  and  _551
REMARK  231  A    between atoms: _555  and  _556
REMARK  232  A    between atoms: _561  and  _563
REMARK  233  A    between atoms: _563  and  _564
REMARK  234  A    between atoms: _563  and  _566
REMARK  235  A    between atoms: _569  and  _571
REMARK  236  A    between atoms: _571  and  _572
REMARK  237  A    between atoms: _571  and  _574
REMARK  238  A    between atoms: _574  and  _575
REMARK  239  A    between atoms: _580  and  _582
REMARK  240  A    between atoms: _582  and  _583
REMARK  241  A    between atoms: _582  and  _585
REMARK  242  A    between atoms: _585  and  _586
REMARK  243  A    between atoms: _589  and  _591
REMARK  244  A    between atoms: _591  and  _592
REMARK  245  A    between atoms: _591  and  _594
REMARK  246  A    between atoms: _594  and  _595
REMARK  247  A    between atoms: _598  and  _600
REMARK  248  A    between atoms: _600  and  _601
REMARK  249  A    between atoms: _603  and  _605
REMARK  250  A    between atoms: _605  and  _606
REMARK  251  A    between atoms: _605  and  _608
REMARK  252  A    between atoms: _608  and  _609
REMARK  253  A    between atoms: _609  and  _610
REMARK  254  A    between atoms: _610  and  _611
REMARK                            x       y       z     vdW  Elec       q    Type
REMARK                         _______ _______ _______ _____ _____    ______ ____
ROOT
ATOM      1  O   HOH     1      -9.755  -6.298  16.065  0.00  0.00    +0.000 OA
ENDROOT
TORSDOF 0
REMARK  Name = ../refined-set-2016/2p3c/2p3c_pocket.pdb
REMARK  254 active torsions:
REMARK  status: ('A' for Active; 'I' for Inactive)
REMARK    1  A    between atoms: _1  and  _3
REMARK    2  A    between atoms: _3  and  _4
REMARK    3  A    between atoms: _3  and  _6
REMARK    4  A    between atoms: _6  and  _7
REMARK    5  A    between atoms: _7  and  _8
REMARK    6  A    between atoms: _8  and  _9
REMARK    7  A    between atoms: _9  and  _10
REMARK    8  A    between atoms: _14  and  _16
REMARK    9  A    between atoms: _16  and  _17
REMARK   10  A    between atoms: _16  and  _19
REMARK   11  A    between atoms: _19  and  _20
REMARK   12  A    between atoms: _20  and  _21
REMARK   13  A    between atoms: _21  and  _22
REMARK   14  A    between atoms: _31  and  _33
REMARK   15  A    between atoms: _33  and  _34
REMARK   16  A    between atoms: _33  and  _36
REMARK   17  A    between atoms: _36  and  _37
REMARK   18  A    between atoms: _40  and  _42
REMARK   19  A    between atoms: _42  and  _43
REMARK   20  A    between atoms: _42  and  _45
REMARK   21  A    between atoms: _45  and  _46
REMARK   22  A    between atoms: _49  and  _51
REMARK   23  A    between atoms: _51  and  _52
REMARK   24  A    between atoms: _51  and  _54
REMARK   25  A    between atoms: _54  and  _55
REMARK   26  A    between atoms: _58  and  _60
REMARK   27  A    between atoms: _60  and  _61
REMARK   28  A    between atoms: _60  and  _63
REMARK   29  A    between atoms: _63  and  _64
REMARK   30  A    between atoms: _67  and  _69
REMARK   31  A    between atoms: _69  and  _70
REMARK   32  A    between atoms: _72  and  _74
REMARK   33  A    between atoms: _74  and  _75
REMARK   34  A    between atoms: _78  and  _80
REMARK   35  A    between atoms: _80  and  _81
REMARK   36  A    between atoms: _80  and  _83
REMARK   37  A    between atoms: _83  and  _84
REMARK   38  A    between atoms: _87  and  _89
REMARK   39  A    between atoms: _89  and  _90
REMARK   40  A    between atoms: _89  and  _92
REMARK   41  A    between atoms: _92  and  _93
REMARK   42  A    between atoms: _96  and  _98
REMARK   43  A    between atoms: _98  and  _99
REMARK   44  A    between atoms: _98  and  _101
REMARK   45  A    between atoms: _101  and  _102
REMARK   46  A    between atoms: _105  and  _107
REMARK   47  A    between atoms: _107  and  _108
REMARK   48  A    between atoms: _107  and  _110
REMARK   49  A    between atoms: _113  and  _115
REMARK   50  A    between atoms: _115  and  _116
REMARK   51  A    between atoms: _115  and  _118
REMARK   52  A    between atoms: _118  and  _119
REMARK   53  A    between atoms: _119  and  _120
REMARK   54  A    between atoms: _120  and  _121
REMARK   55  A    between atoms: _121  and  _122
REMARK   56  A    between atoms: _126  and  _128
REMARK   57  A    between atoms: _128  and  _129
REMARK   58  A    between atoms: _128  and  _131
REMARK   59  A    between atoms: _131  and  _132
REMARK   60  A    between atoms: _132  and  _133
REMARK   61  A    between atoms: _135  and  _137
REMARK   62  A    between atoms: _137  and  _138
REMARK   63  A    between atoms: _137  and  _140
REMARK   64  A    between atoms: _140  and  _141
REMARK   65  A    between atoms: _144  and  _146
REMARK   66  A    between atoms: _146  and  _147
REMARK   67  A    between atoms: _149  and  _151
REMARK   68  A    between atoms: _151  and  _152
REMARK   69  A    between atoms: _154  and  _156
REMARK   70  A    between atoms: _156  and  _157
REMARK   71  A    between atoms: _156  and  _159
REMARK   72  A    between atoms: _159  and  _160
REMARK   73  A    between atoms: _163  and  _165
REMARK   74  A    between atoms: _165  and  _166
REMARK   75  A    between atoms: _168  and  _170
REMARK   76  A    between atoms: _170  and  _171
REMARK   77  A    between atoms: _173  and  _175
REMARK   78  A    between atoms: _175  and  _176
REMARK   79  A    between atoms: _175  and  _178
REMARK   80  A    between atoms: _178  and  _179
REMARK   81  A    between atoms: _185  and  _187
REMARK   82  A    between atoms: _187  and  _188
REMARK   83  A    between atoms: _187  and  _190
REMARK   84  A    between atoms: _190  and  _191
REMARK   85  A    between atoms: _194  and  _196
REMARK   86  A    between atoms: _196  and  _197
REMARK   87  A    between atoms: _196  and  _199
REMARK   88  A    between atoms: _202  and  _204
REMARK   89  A    between atoms: _204  and  _205
REMARK   90  A    between atoms: _204  and  _207
REMARK   91  A    between atoms: _207  and  _208
REMARK   92  A    between atoms: _208  and  _209
REMARK   93  A    between atoms: _214  and  _216
REMARK   94  A    between atoms: _216  and  _217
REMARK   95  A    between atoms: _216  and  _219
REMARK   96  A    between atoms: _219  and  _220
REMARK   97  A    between atoms: _224  and  _225
REMARK   98  A    between atoms: _230  and  _232
REMARK   99  A    between atoms: _232  and  _233
REMARK  100  A    between atoms: _232  and  _235
REMARK  101  A    between atoms: _235  and  _236
REMARK  102  A    between atoms: _240  and  _241
REMARK  103  A    between atoms: _246  and  _248
REMARK  104  A    between atoms: _248  and  _249
REMARK  105  A    between atoms: _248  and  _251
REMARK  106  A    between atoms: _254  and  _256
REMARK  107  A    between atoms: _256  and  _257
REMARK  108  A    between atoms: _256  and  _259
REMARK  109  A    between atoms: _259  and  _260
REMARK  110  A    between atoms: _265  and  _267
REMARK  111  A    between atoms: _267  and  _268
REMARK  112  A    between atoms: _267  and  _270
REMARK  113  A    between atoms: _270  and  _271
REMARK  114  A    between atoms: _274  and  _276
REMARK  115  A    between atoms: _276  and  _277
REMARK  116  A    between atoms: _276  and  _279
REMARK  117  A    between atoms: _279  and  _280
REMARK  118  A    between atoms: _283  and  _285
REMARK  119  A    between atoms: _285  and  _286
REMARK  120  A    between atoms: _288  and  _290
REMARK  121  A    between atoms: _290  and  _291
REMARK  122  A    between atoms: _290  and  _293
REMARK  123  A    between atoms: _293  and  _294
REMARK  124  A    between atoms: _294  and  _295
REMARK  125  A    between atoms: _295  and  _296
REMARK  126  A    between atoms: _305  and  _307
REMARK  127  A    between atoms: _307  and  _308
REMARK  128  A    between atoms: _307  and  _310
REMARK  129  A    between atoms: _310  and  _311
REMARK  130  A    between atoms: _316  and  _318
REMARK  131  A    between atoms: _318  and  _319
REMARK  132  A    between atoms: _318  and  _321
REMARK  133  A    between atoms: _321  and  _322
REMARK  134  A    between atoms: _322  and  _323
REMARK  135  A    between atoms: _323  and  _324
REMARK  136  A    between atoms: _324  and  _325
REMARK  137  A    between atoms: _329  and  _331
REMARK  138  A    between atoms: _331  and  _332
REMARK  139  A    between atoms: _331  and  _334
REMARK  140  A    between atoms: _334  and  _335
REMARK  141  A    between atoms: _335  and  _336
REMARK  142  A    between atoms: _336  and  _337
REMARK  143  A    between atoms: _346  and  _348
REMARK  144  A    between atoms: _348  and  _349
REMARK  145  A    between atoms: _348  and  _351
REMARK  146  A    between atoms: _351  and  _352
REMARK  147  A    between atoms: _355  and  _357
REMARK  148  A    between atoms: _357  and  _358
REMARK  149  A    between atoms: _357  and  _360
REMARK  150  A    between atoms: _360  and  _361
REMARK  151  A    between atoms: _364  and  _366
REMARK  152  A    between atoms: _366  and  _367
REMARK  153  A    between atoms: _366  and  _369
REMARK  154  A    between atoms: _369  and  _370
REMARK  155  A    between atoms: _373  and  _375
REMARK  156  A    between atoms: _375  and  _376
REMARK  157  A    between atoms: _375  and  _378
REMARK  158  A    between atoms: _378  and  _379
REMARK  159  A    between atoms: _382  and  _384
REMARK  160  A    between atoms: _384  and  _385
REMARK  161  A    between atoms: _387  and  _389
REMARK  162  A    between atoms: _389  and  _390
REMARK  163  A    between atoms: _393  and  _395
REMARK  164  A    between atoms: _395  and  _396
REMARK  165  A    between atoms: _395  and  _398
REMARK  166  A    between atoms: _398  and  _399
REMARK  167  A    between atoms: _402  and  _404
REMARK  168  A    between atoms: _404  and  _405
REMARK  169  A    between atoms: _404  and  _407
REMARK  170  A    between atoms: _407  and  _408
REMARK  171  A    between atoms: _411  and  _413
REMARK  172  A    between atoms: _413  and  _414
REMARK  173  A    between atoms: _413  and  _416
REMARK  174  A    between atoms: _416  and  _417
REMARK  175  A    between atoms: _420  and  _422
REMARK  176  A    between atoms: _422  and  _423
REMARK  177  A    between atoms: _422  and  _425
REMARK  178  A    between atoms: _428  and  _430
REMARK  179  A    between atoms: _430  and  _431
REMARK  180  A    between atoms: _430  and  _433
REMARK  181  A    between atoms: _433  and  _434
REMARK  182  A    between atoms: _434  and  _435
REMARK  183  A    between atoms: _435  and  _436
REMARK  184  A    between atoms: _436  and  _437
REMARK  185  A    between atoms: _441  and  _443
REMARK  186  A    between atoms: _443  and  _444
REMARK  187  A    between atoms: _443  and  _446
REMARK  188  A    between atoms: _446  and  _447
REMARK  189  A    between atoms: _447  and  _448
REMARK  190  A    between atoms: _450  and  _452
REMARK  191  A    between atoms: _452  and  _453
REMARK  192  A    between atoms: _452  and  _455
REMARK  193  A    between atoms: _455  and  _456
REMARK  194  A    between atoms: _459  and  _461
REMARK  195  A    between atoms: _461  and  _462
REMARK  196  A    between atoms: _464  and  _466
REMARK  197  A    between atoms: _466  and  _467
REMARK  198  A    between atoms: _469  and  _471
REMARK  199  A    between atoms: _471  and  _472
REMARK  200  A    between atoms: _471  and  _474
REMARK  201  A    between atoms: _474  and  _475
REMARK  202  A    between atoms: _478  and  _480
REMARK  203  A    between atoms: _480  and  _481
REMARK  204  A    between atoms: _483  and  _485
REMARK  205  A    between atoms: _485  and  _486
REMARK  206  A    between atoms: _488  and  _490
REMARK  207  A    between atoms: _490  and  _491
REMARK  208  A    between atoms: _490  and  _493
REMARK  209  A    between atoms: _493  and  _494
REMARK  210  A    between atoms: _500  and  _502
REMARK  211  A    between atoms: _502  and  _503
REMARK  212  A    between atoms: _502  and  _505
REMARK  213  A    between atoms: _505  and  _506
REMARK  214  A    between atoms: _509  and  _511
REMARK  215  A    between atoms: _511  and  _512
REMARK  216  A    between atoms: _511  and  _514
REMARK  217  A    between atoms: _517  and  _519
REMARK  218  A    between atoms: _519  and  _520
REMARK  219  A    between atoms: _519  and  _522
REMARK  220  A    between atoms: _522  and  _523
REMARK  221  A    between atoms: _523  and  _524
REMARK  222  A    between atoms: _529  and  _531
REMARK  223  A    between atoms: _531  and  _532
REMARK  224  A    between atoms: _531  and  _534
REMARK  225  A    between atoms: _534  and  _535
REMARK  226  A    between atoms: _539  and  _540
REMARK  227  A    between atoms: _545  and  _547
REMARK  228  A    between atoms: _547  and  _548
REMARK  229  A    between atoms: _547  and  _550
REMARK  230  A    between atoms: _550  and  _551
REMARK  231  A    between atoms: _555  and  _556
REMARK  232  A    between atoms: _561  and  _563
REMARK  233  A    between atoms: _563  and  _564
REMARK  234  A    between atoms: _563  and  _566
REMARK  235  A    between atoms: _569  and  _571
REMARK  236  A    between atoms: _571  and  _572
REMARK  237  A    between atoms: _571  and  _574
REMARK  238  A    between atoms: _574  and  _575
REMARK  239  A    between atoms: _580  and  _582
REMARK  240  A    between atoms: _582  and  _583
REMARK  241  A    between atoms: _582  and  _585
REMARK  242  A    between atoms: _585  and  _586
REMARK  243  A    between atoms: _589  and  _591
REMARK  244  A    between atoms: _591  and  _592
REMARK  245  A    between atoms: _591  and  _594
REMARK  246  A    between atoms: _594  and  _595
REMARK  247  A    between atoms: _598  and  _600
REMARK  248  A    between atoms: _600  and  _601
REMARK  249  A    between atoms: _603  and  _605
REMARK  250  A    between atoms: _605  and  _606
REMARK  251  A    between atoms: _605  and  _608
REMARK  252  A    between atoms: _608  and  _609
REMARK  253  A    between atoms: _609  and  _610
REMARK  254  A    between atoms: _610  and  _611
REMARK                            x       y       z     vdW  Elec       q    Type
REMARK                         _______ _______ _______ _____ _____    ______ ____
ROOT
ATOM      1  O   HOH     1     -11.921 -16.580  26.595  0.00  0.00    +0.000 OA
ENDROOT
TORSDOF 0
REMARK  Name = ../refined-set-2016/2p3c/2p3c_pocket.pdb
REMARK  254 active torsions:
REMARK  status: ('A' for Active; 'I' for Inactive)
REMARK    1  A    between atoms: _1  and  _3
REMARK    2  A    between atoms: _3  and  _4
REMARK    3  A    between atoms: _3  and  _6
REMARK    4  A    between atoms: _6  and  _7
REMARK    5  A    between atoms: _7  and  _8
REMARK    6  A    between atoms: _8  and  _9
REMARK    7  A    between atoms: _9  and  _10
REMARK    8  A    between atoms: _14  and  _16
REMARK    9  A    between atoms: _16  and  _17
REMARK   10  A    between atoms: _16  and  _19
REMARK   11  A    between atoms: _19  and  _20
REMARK   12  A    between atoms: _20  and  _21
REMARK   13  A    between atoms: _21  and  _22
REMARK   14  A    between atoms: _31  and  _33
REMARK   15  A    between atoms: _33  and  _34
REMARK   16  A    between atoms: _33  and  _36
REMARK   17  A    between atoms: _36  and  _37
REMARK   18  A    between atoms: _40  and  _42
REMARK   19  A    between atoms: _42  and  _43
REMARK   20  A    between atoms: _42  and  _45
REMARK   21  A    between atoms: _45  and  _46
REMARK   22  A    between atoms: _49  and  _51
REMARK   23  A    between atoms: _51  and  _52
REMARK   24  A    between atoms: _51  and  _54
REMARK   25  A    between atoms: _54  and  _55
REMARK   26  A    between atoms: _58  and  _60
REMARK   27  A    between atoms: _60  and  _61
REMARK   28  A    between atoms: _60  and  _63
REMARK   29  A    between atoms: _63  and  _64
REMARK   30  A    between atoms: _67  and  _69
REMARK   31  A    between atoms: _69  and  _70
REMARK   32  A    between atoms: _72  and  _74
REMARK   33  A    between atoms: _74  and  _75
REMARK   34  A    between atoms: _78  and  _80
REMARK   35  A    between atoms: _80  and  _81
REMARK   36  A    between atoms: _80  and  _83
REMARK   37  A    between atoms: _83  and  _84
REMARK   38  A    between atoms: _87  and  _89
REMARK   39  A    between atoms: _89  and  _90
REMARK   40  A    between atoms: _89  and  _92
REMARK   41  A    between atoms: _92  and  _93
REMARK   42  A    between atoms: _96  and  _98
REMARK   43  A    between atoms: _98  and  _99
REMARK   44  A    between atoms: _98  and  _101
REMARK   45  A    between atoms: _101  and  _102
REMARK   46  A    between atoms: _105  and  _107
REMARK   47  A    between atoms: _107  and  _108
REMARK   48  A    between atoms: _107  and  _110
REMARK   49  A    between atoms: _113  and  _115
REMARK   50  A    between atoms: _115  and  _116
REMARK   51  A    between atoms: _115  and  _118
REMARK   52  A    between atoms: _118  and  _119
REMARK   53  A    between atoms: _119  and  _120
REMARK   54  A    between atoms: _120  and  _121
REMARK   55  A    between atoms: _121  and  _122
REMARK   56  A    between atoms: _126  and  _128
REMARK   57  A    between atoms: _128  and  _129
REMARK   58  A    between atoms: _128  and  _131
REMARK   59  A    between atoms: _131  and  _132
REMARK   60  A    between atoms: _132  and  _133
REMARK   61  A    between atoms: _135  and  _137
REMARK   62  A    between atoms: _137  and  _138
REMARK   63  A    between atoms: _137  and  _140
REMARK   64  A    between atoms: _140  and  _141
REMARK   65  A    between atoms: _144  and  _146
REMARK   66  A    between atoms: _146  and  _147
REMARK   67  A    between atoms: _149  and  _151
REMARK   68  A    between atoms: _151  and  _152
REMARK   69  A    between atoms: _154  and  _156
REMARK   70  A    between atoms: _156  and  _157
REMARK   71  A    between atoms: _156  and  _159
REMARK   72  A    between atoms: _159  and  _160
REMARK   73  A    between atoms: _163  and  _165
REMARK   74  A    between atoms: _165  and  _166
REMARK   75  A    between atoms: _168  and  _170
REMARK   76  A    between atoms: _170  and  _171
REMARK   77  A    between atoms: _173  and  _175
REMARK   78  A    between atoms: _175  and  _176
REMARK   79  A    between atoms: _175  and  _178
REMARK   80  A    between atoms: _178  and  _179
REMARK   81  A    between atoms: _185  and  _187
REMARK   82  A    between atoms: _187  and  _188
REMARK   83  A    between atoms: _187  and  _190
REMARK   84  A    between atoms: _190  and  _191
REMARK   85  A    between atoms: _194  and  _196
REMARK   86  A    between atoms: _196  and  _197
REMARK   87  A    between atoms: _196  and  _199
REMARK   88  A    between atoms: _202  and  _204
REMARK   89  A    between atoms: _204  and  _205
REMARK   90  A    between atoms: _204  and  _207
REMARK   91  A    between atoms: _207  and  _208
REMARK   92  A    between atoms: _208  and  _209
REMARK   93  A    between atoms: _214  and  _216
REMARK   94  A    between atoms: _216  and  _217
REMARK   95  A    between atoms: _216  and  _219
REMARK   96  A    between atoms: _219  and  _220
REMARK   97  A    between atoms: _224  and  _225
REMARK   98  A    between atoms: _230  and  _232
REMARK   99  A    between atoms: _232  and  _233
REMARK  100  A    between atoms: _232  and  _235
REMARK  101  A    between atoms: _235  and  _236
REMARK  102  A    between atoms: _240  and  _241
REMARK  103  A    between atoms: _246  and  _248
REMARK  104  A    between atoms: _248  and  _249
REMARK  105  A    between atoms: _248  and  _251
REMARK  106  A    between atoms: _254  and  _256
REMARK  107  A    between atoms: _256  and  _257
REMARK  108  A    between atoms: _256  and  _259
REMARK  109  A    between atoms: _259  and  _260
REMARK  110  A    between atoms: _265  and  _267
REMARK  111  A    between atoms: _267  and  _268
REMARK  112  A    between atoms: _267  and  _270
REMARK  113  A    between atoms: _270  and  _271
REMARK  114  A    between atoms: _274  and  _276
REMARK  115  A    between atoms: _276  and  _277
REMARK  116  A    between atoms: _276  and  _279
REMARK  117  A    between atoms: _279  and  _280
REMARK  118  A    between atoms: _283  and  _285
REMARK  119  A    between atoms: _285  and  _286
REMARK  120  A    between atoms: _288  and  _290
REMARK  121  A    between atoms: _290  and  _291
REMARK  122  A    between atoms: _290  and  _293
REMARK  123  A    between atoms: _293  and  _294
REMARK  124  A    between atoms: _294  and  _295
REMARK  125  A    between atoms: _295  and  _296
REMARK  126  A    between atoms: _305  and  _307
REMARK  127  A    between atoms: _307  and  _308
REMARK  128  A    between atoms: _307  and  _310
REMARK  129  A    between atoms: _310  and  _311
REMARK  130  A    between atoms: _316  and  _318
REMARK  131  A    between atoms: _318  and  _319
REMARK  132  A    between atoms: _318  and  _321
REMARK  133  A    between atoms: _321  and  _322
REMARK  134  A    between atoms: _322  and  _323
REMARK  135  A    between atoms: _323  and  _324
REMARK  136  A    between atoms: _324  and  _325
REMARK  137  A    between atoms: _329  and  _331
REMARK  138  A    between atoms: _331  and  _332
REMARK  139  A    between atoms: _331  and  _334
REMARK  140  A    between atoms: _334  and  _335
REMARK  141  A    between atoms: _335  and  _336
REMARK  142  A    between atoms: _336  and  _337
REMARK  143  A    between atoms: _346  and  _348
REMARK  144  A    between atoms: _348  and  _349
REMARK  145  A    between atoms: _348  and  _351
REMARK  146  A    between atoms: _351  and  _352
REMARK  147  A    between atoms: _355  and  _357
REMARK  148  A    between atoms: _357  and  _358
REMARK  149  A    between atoms: _357  and  _360
REMARK  150  A    between atoms: _360  and  _361
REMARK  151  A    between atoms: _364  and  _366
REMARK  152  A    between atoms: _366  and  _367
REMARK  153  A    between atoms: _366  and  _369
REMARK  154  A    between atoms: _369  and  _370
REMARK  155  A    between atoms: _373  and  _375
REMARK  156  A    between atoms: _375  and  _376
REMARK  157  A    between atoms: _375  and  _378
REMARK  158  A    between atoms: _378  and  _379
REMARK  159  A    between atoms: _382  and  _384
REMARK  160  A    between atoms: _384  and  _385
REMARK  161  A    between atoms: _387  and  _389
REMARK  162  A    between atoms: _389  and  _390
REMARK  163  A    between atoms: _393  and  _395
REMARK  164  A    between atoms: _395  and  _396
REMARK  165  A    between atoms: _395  and  _398
REMARK  166  A    between atoms: _398  and  _399
REMARK  167  A    between atoms: _402  and  _404
REMARK  168  A    between atoms: _404  and  _405
REMARK  169  A    between atoms: _404  and  _407
REMARK  170  A    between atoms: _407  and  _408
REMARK  171  A    between atoms: _411  and  _413
REMARK  172  A    between atoms: _413  and  _414
REMARK  173  A    between atoms: _413  and  _416
REMARK  174  A    between atoms: _416  and  _417
REMARK  175  A    between atoms: _420  and  _422
REMARK  176  A    between atoms: _422  and  _423
REMARK  177  A    between atoms: _422  and  _425
REMARK  178  A    between atoms: _428  and  _430
REMARK  179  A    between atoms: _430  and  _431
REMARK  180  A    between atoms: _430  and  _433
REMARK  181  A    between atoms: _433  and  _434
REMARK  182  A    between atoms: _434  and  _435
REMARK  183  A    between atoms: _435  and  _436
REMARK  184  A    between atoms: _436  and  _437
REMARK  185  A    between atoms: _441  and  _443
REMARK  186  A    between atoms: _443  and  _444
REMARK  187  A    between atoms: _443  and  _446
REMARK  188  A    between atoms: _446  and  _447
REMARK  189  A    between atoms: _447  and  _448
REMARK  190  A    between atoms: _450  and  _452
REMARK  191  A    between atoms: _452  and  _453
REMARK  192  A    between atoms: _452  and  _455
REMARK  193  A    between atoms: _455  and  _456
REMARK  194  A    between atoms: _459  and  _461
REMARK  195  A    between atoms: _461  and  _462
REMARK  196  A    between atoms: _464  and  _466
REMARK  197  A    between atoms: _466  and  _467
REMARK  198  A    between atoms: _469  and  _471
REMARK  199  A    between atoms: _471  and  _472
REMARK  200  A    between atoms: _471  and  _474
REMARK  201  A    between atoms: _474  and  _475
REMARK  202  A    between atoms: _478  and  _480
REMARK  203  A    between atoms: _480  and  _481
REMARK  204  A    between atoms: _483  and  _485
REMARK  205  A    between atoms: _485  and  _486
REMARK  206  A    between atoms: _488  and  _490
REMARK  207  A    between atoms: _490  and  _491
REMARK  208  A    between atoms: _490  and  _493
REMARK  209  A    between atoms: _493  and  _494
REMARK  210  A    between atoms: _500  and  _502
REMARK  211  A    between atoms: _502  and  _503
REMARK  212  A    between atoms: _502  and  _505
REMARK  213  A    between atoms: _505  and  _506
REMARK  214  A    between atoms: _509  and  _511
REMARK  215  A    between atoms: _511  and  _512
REMARK  216  A    between atoms: _511  and  _514
REMARK  217  A    between atoms: _517  and  _519
REMARK  218  A    between atoms: _519  and  _520
REMARK  219  A    between atoms: _519  and  _522
REMARK  220  A    between atoms: _522  and  _523
REMARK  221  A    between atoms: _523  and  _524
REMARK  222  A    between atoms: _529  and  _531
REMARK  223  A    between atoms: _531  and  _532
REMARK  224  A    between atoms: _531  and  _534
REMARK  225  A    between atoms: _534  and  _535
REMARK  226  A    between atoms: _539  and  _540
REMARK  227  A    between atoms: _545  and  _547
REMARK  228  A    between atoms: _547  and  _548
REMARK  229  A    between atoms: _547  and  _550
REMARK  230  A    between atoms: _550  and  _551
REMARK  231  A    between atoms: _555  and  _556
REMARK  232  A    between atoms: _561  and  _563
REMARK  233  A    between atoms: _563  and  _564
REMARK  234  A    between atoms: _563  and  _566
REMARK  235  A    between atoms: _569  and  _571
REMARK  236  A    between atoms: _571  and  _572
REMARK  237  A    between atoms: _571  and  _574
REMARK  238  A    between atoms: _574  and  _575
REMARK  239  A    between atoms: _580  and  _582
REMARK  240  A    between atoms: _582  and  _583
REMARK  241  A    between atoms: _582  and  _585
REMARK  242  A    between atoms: _585  and  _586
REMARK  243  A    between atoms: _589  and  _591
REMARK  244  A    between atoms: _591  and  _592
REMARK  245  A    between atoms: _591  and  _594
REMARK  246  A    between atoms: _594  and  _595
REMARK  247  A    between atoms: _598  and  _600
REMARK  248  A    between atoms: _600  and  _601
REMARK  249  A    between atoms: _603  and  _605
REMARK  250  A    between atoms: _605  and  _606
REMARK  251  A    between atoms: _605  and  _608
REMARK  252  A    between atoms: _608  and  _609
REMARK  253  A    between atoms: _609  and  _610
REMARK  254  A    between atoms: _610  and  _611
REMARK                            x       y       z     vdW  Elec       q    Type
REMARK                         _______ _______ _______ _____ _____    ______ ____
ROOT
ATOM      1  O   HOH     1      -7.891 -23.194  18.005  0.00  0.00    +0.000 OA
ENDROOT
TORSDOF 0
REMARK  Name = ../refined-set-2016/2p3c/2p3c_pocket.pdb
REMARK  254 active torsions:
REMARK  status: ('A' for Active; 'I' for Inactive)
REMARK    1  A    between atoms: _1  and  _3
REMARK    2  A    between atoms: _3  and  _4
REMARK    3  A    between atoms: _3  and  _6
REMARK    4  A    between atoms: _6  and  _7
REMARK    5  A    between atoms: _7  and  _8
REMARK    6  A    between atoms: _8  and  _9
REMARK    7  A    between atoms: _9  and  _10
REMARK    8  A    between atoms: _14  and  _16
REMARK    9  A    between atoms: _16  and  _17
REMARK   10  A    between atoms: _16  and  _19
REMARK   11  A    between atoms: _19  and  _20
REMARK   12  A    between atoms: _20  and  _21
REMARK   13  A    between atoms: _21  and  _22
REMARK   14  A    between atoms: _31  and  _33
REMARK   15  A    between atoms: _33  and  _34
REMARK   16  A    between atoms: _33  and  _36
REMARK   17  A    between atoms: _36  and  _37
REMARK   18  A    between atoms: _40  and  _42
REMARK   19  A    between atoms: _42  and  _43
REMARK   20  A    between atoms: _42  and  _45
REMARK   21  A    between atoms: _45  and  _46
REMARK   22  A    between atoms: _49  and  _51
REMARK   23  A    between atoms: _51  and  _52
REMARK   24  A    between atoms: _51  and  _54
REMARK   25  A    between atoms: _54  and  _55
REMARK   26  A    between atoms: _58  and  _60
REMARK   27  A    between atoms: _60  and  _61
REMARK   28  A    between atoms: _60  and  _63
REMARK   29  A    between atoms: _63  and  _64
REMARK   30  A    between atoms: _67  and  _69
REMARK   31  A    between atoms: _69  and  _70
REMARK   32  A    between atoms: _72  and  _74
REMARK   33  A    between atoms: _74  and  _75
REMARK   34  A    between atoms: _78  and  _80
REMARK   35  A    between atoms: _80  and  _81
REMARK   36  A    between atoms: _80  and  _83
REMARK   37  A    between atoms: _83  and  _84
REMARK   38  A    between atoms: _87  and  _89
REMARK   39  A    between atoms: _89  and  _90
REMARK   40  A    between atoms: _89  and  _92
REMARK   41  A    between atoms: _92  and  _93
REMARK   42  A    between atoms: _96  and  _98
REMARK   43  A    between atoms: _98  and  _99
REMARK   44  A    between atoms: _98  and  _101
REMARK   45  A    between atoms: _101  and  _102
REMARK   46  A    between atoms: _105  and  _107
REMARK   47  A    between atoms: _107  and  _108
REMARK   48  A    between atoms: _107  and  _110
REMARK   49  A    between atoms: _113  and  _115
REMARK   50  A    between atoms: _115  and  _116
REMARK   51  A    between atoms: _115  and  _118
REMARK   52  A    between atoms: _118  and  _119
REMARK   53  A    between atoms: _119  and  _120
REMARK   54  A    between atoms: _120  and  _121
REMARK   55  A    between atoms: _121  and  _122
REMARK   56  A    between atoms: _126  and  _128
REMARK   57  A    between atoms: _128  and  _129
REMARK   58  A    between atoms: _128  and  _131
REMARK   59  A    between atoms: _131  and  _132
REMARK   60  A    between atoms: _132  and  _133
REMARK   61  A    between atoms: _135  and  _137
REMARK   62  A    between atoms: _137  and  _138
REMARK   63  A    between atoms: _137  and  _140
REMARK   64  A    between atoms: _140  and  _141
REMARK   65  A    between atoms: _144  and  _146
REMARK   66  A    between atoms: _146  and  _147
REMARK   67  A    between atoms: _149  and  _151
REMARK   68  A    between atoms: _151  and  _152
REMARK   69  A    between atoms: _154  and  _156
REMARK   70  A    between atoms: _156  and  _157
REMARK   71  A    between atoms: _156  and  _159
REMARK   72  A    between atoms: _159  and  _160
REMARK   73  A    between atoms: _163  and  _165
REMARK   74  A    between atoms: _165  and  _166
REMARK   75  A    between atoms: _168  and  _170
REMARK   76  A    between atoms: _170  and  _171
REMARK   77  A    between atoms: _173  and  _175
REMARK   78  A    between atoms: _175  and  _176
REMARK   79  A    between atoms: _175  and  _178
REMARK   80  A    between atoms: _178  and  _179
REMARK   81  A    between atoms: _185  and  _187
REMARK   82  A    between atoms: _187  and  _188
REMARK   83  A    between atoms: _187  and  _190
REMARK   84  A    between atoms: _190  and  _191
REMARK   85  A    between atoms: _194  and  _196
REMARK   86  A    between atoms: _196  and  _197
REMARK   87  A    between atoms: _196  and  _199
REMARK   88  A    between atoms: _202  and  _204
REMARK   89  A    between atoms: _204  and  _205
REMARK   90  A    between atoms: _204  and  _207
REMARK   91  A    between atoms: _207  and  _208
REMARK   92  A    between atoms: _208  and  _209
REMARK   93  A    between atoms: _214  and  _216
REMARK   94  A    between atoms: _216  and  _217
REMARK   95  A    between atoms: _216  and  _219
REMARK   96  A    between atoms: _219  and  _220
REMARK   97  A    between atoms: _224  and  _225
REMARK   98  A    between atoms: _230  and  _232
REMARK   99  A    between atoms: _232  and  _233
REMARK  100  A    between atoms: _232  and  _235
REMARK  101  A    between atoms: _235  and  _236
REMARK  102  A    between atoms: _240  and  _241
REMARK  103  A    between atoms: _246  and  _248
REMARK  104  A    between atoms: _248  and  _249
REMARK  105  A    between atoms: _248  and  _251
REMARK  106  A    between atoms: _254  and  _256
REMARK  107  A    between atoms: _256  and  _257
REMARK  108  A    between atoms: _256  and  _259
REMARK  109  A    between atoms: _259  and  _260
REMARK  110  A    between atoms: _265  and  _267
REMARK  111  A    between atoms: _267  and  _268
REMARK  112  A    between atoms: _267  and  _270
REMARK  113  A    between atoms: _270  and  _271
REMARK  114  A    between atoms: _274  and  _276
REMARK  115  A    between atoms: _276  and  _277
REMARK  116  A    between atoms: _276  and  _279
REMARK  117  A    between atoms: _279  and  _280
REMARK  118  A    between atoms: _283  and  _285
REMARK  119  A    between atoms: _285  and  _286
REMARK  120  A    between atoms: _288  and  _290
REMARK  121  A    between atoms: _290  and  _291
REMARK  122  A    between atoms: _290  and  _293
REMARK  123  A    between atoms: _293  and  _294
REMARK  124  A    between atoms: _294  and  _295
REMARK  125  A    between atoms: _295  and  _296
REMARK  126  A    between atoms: _305  and  _307
REMARK  127  A    between atoms: _307  and  _308
REMARK  128  A    between atoms: _307  and  _310
REMARK  129  A    between atoms: _310  and  _311
REMARK  130  A    between atoms: _316  and  _318
REMARK  131  A    between atoms: _318  and  _319
REMARK  132  A    between atoms: _318  and  _321
REMARK  133  A    between atoms: _321  and  _322
REMARK  134  A    between atoms: _322  and  _323
REMARK  135  A    between atoms: _323  and  _324
REMARK  136  A    between atoms: _324  and  _325
REMARK  137  A    between atoms: _329  and  _331
REMARK  138  A    between atoms: _331  and  _332
REMARK  139  A    between atoms: _331  and  _334
REMARK  140  A    between atoms: _334  and  _335
REMARK  141  A    between atoms: _335  and  _336
REMARK  142  A    between atoms: _336  and  _337
REMARK  143  A    between atoms: _346  and  _348
REMARK  144  A    between atoms: _348  and  _349
REMARK  145  A    between atoms: _348  and  _351
REMARK  146  A    between atoms: _351  and  _352
REMARK  147  A    between atoms: _355  and  _357
REMARK  148  A    between atoms: _357  and  _358
REMARK  149  A    between atoms: _357  and  _360
REMARK  150  A    between atoms: _360  and  _361
REMARK  151  A    between atoms: _364  and  _366
REMARK  152  A    between atoms: _366  and  _367
REMARK  153  A    between atoms: _366  and  _369
REMARK  154  A    between atoms: _369  and  _370
REMARK  155  A    between atoms: _373  and  _375
REMARK  156  A    between atoms: _375  and  _376
REMARK  157  A    between atoms: _375  and  _378
REMARK  158  A    between atoms: _378  and  _379
REMARK  159  A    between atoms: _382  and  _384
REMARK  160  A    between atoms: _384  and  _385
REMARK  161  A    between atoms: _387  and  _389
REMARK  162  A    between atoms: _389  and  _390
REMARK  163  A    between atoms: _393  and  _395
REMARK  164  A    between atoms: _395  and  _396
REMARK  165  A    between atoms: _395  and  _398
REMARK  166  A    between atoms: _398  and  _399
REMARK  167  A    between atoms: _402  and  _404
REMARK  168  A    between atoms: _404  and  _405
REMARK  169  A    between atoms: _404  and  _407
REMARK  170  A    between atoms: _407  and  _408
REMARK  171  A    between atoms: _411  and  _413
REMARK  172  A    between atoms: _413  and  _414
REMARK  173  A    between atoms: _413  and  _416
REMARK  174  A    between atoms: _416  and  _417
REMARK  175  A    between atoms: _420  and  _422
REMARK  176  A    between atoms: _422  and  _423
REMARK  177  A    between atoms: _422  and  _425
REMARK  178  A    between atoms: _428  and  _430
REMARK  179  A    between atoms: _430  and  _431
REMARK  180  A    between atoms: _430  and  _433
REMARK  181  A    between atoms: _433  and  _434
REMARK  182  A    between atoms: _434  and  _435
REMARK  183  A    between atoms: _435  and  _436
REMARK  184  A    between atoms: _436  and  _437
REMARK  185  A    between atoms: _441  and  _443
REMARK  186  A    between atoms: _443  and  _444
REMARK  187  A    between atoms: _443  and  _446
REMARK  188  A    between atoms: _446  and  _447
REMARK  189  A    between atoms: _447  and  _448
REMARK  190  A    between atoms: _450  and  _452
REMARK  191  A    between atoms: _452  and  _453
REMARK  192  A    between atoms: _452  and  _455
REMARK  193  A    between atoms: _455  and  _456
REMARK  194  A    between atoms: _459  and  _461
REMARK  195  A    between atoms: _461  and  _462
REMARK  196  A    between atoms: _464  and  _466
REMARK  197  A    between atoms: _466  and  _467
REMARK  198  A    between atoms: _469  and  _471
REMARK  199  A    between atoms: _471  and  _472
REMARK  200  A    between atoms: _471  and  _474
REMARK  201  A    between atoms: _474  and  _475
REMARK  202  A    between atoms: _478  and  _480
REMARK  203  A    between atoms: _480  and  _481
REMARK  204  A    between atoms: _483  and  _485
REMARK  205  A    between atoms: _485  and  _486
REMARK  206  A    between atoms: _488  and  _490
REMARK  207  A    between atoms: _490  and  _491
REMARK  208  A    between atoms: _490  and  _493
REMARK  209  A    between atoms: _493  and  _494
REMARK  210  A    between atoms: _500  and  _502
REMARK  211  A    between atoms: _502  and  _503
REMARK  212  A    between atoms: _502  and  _505
REMARK  213  A    between atoms: _505  and  _506
REMARK  214  A    between atoms: _509  and  _511
REMARK  215  A    between atoms: _511  and  _512
REMARK  216  A    between atoms: _511  and  _514
REMARK  217  A    between atoms: _517  and  _519
REMARK  218  A    between atoms: _519  and  _520
REMARK  219  A    between atoms: _519  and  _522
REMARK  220  A    between atoms: _522  and  _523
REMARK  221  A    between atoms: _523  and  _524
REMARK  222  A    between atoms: _529  and  _531
REMARK  223  A    between atoms: _531  and  _532
REMARK  224  A    between atoms: _531  and  _534
REMARK  225  A    between atoms: _534  and  _535
REMARK  226  A    between atoms: _539  and  _540
REMARK  227  A    between atoms: _545  and  _547
REMARK  228  A    between atoms: _547  and  _548
REMARK  229  A    between atoms: _547  and  _550
REMARK  230  A    between atoms: _550  and  _551
REMARK  231  A    between atoms: _555  and  _556
REMARK  232  A    between atoms: _561  and  _563
REMARK  233  A    between atoms: _563  and  _564
REMARK  234  A    between atoms: _563  and  _566
REMARK  235  A    between atoms: _569  and  _571
REMARK  236  A    between atoms: _571  and  _572
REMARK  237  A    between atoms: _571  and  _574
REMARK  238  A    between atoms: _574  and  _575
REMARK  239  A    between atoms: _580  and  _582
REMARK  240  A    between atoms: _582  and  _583
REMARK  241  A    between atoms: _582  and  _585
REMARK  242  A    between atoms: _585  and  _586
REMARK  243  A    between atoms: _589  and  _591
REMARK  244  A    between atoms: _591  and  _592
REMARK  245  A    between atoms: _591  and  _594
REMARK  246  A    between atoms: _594  and  _595
REMARK  247  A    between atoms: _598  and  _600
REMARK  248  A    between atoms: _600  and  _601
REMARK  249  A    between atoms: _603  and  _605
REMARK  250  A    between atoms: _605  and  _606
REMARK  251  A    between atoms: _605  and  _608
REMARK  252  A    between atoms: _608  and  _609
REMARK  253  A    between atoms: _609  and  _610
REMARK  254  A    between atoms: _610  and  _611
REMARK                            x       y       z     vdW  Elec       q    Type
REMARK                         _______ _______ _______ _____ _____    ______ ____
ROOT
ATOM      1  O   HOH     1      -8.509 -22.241  24.783  0.00  0.00    +0.000 OA
ENDROOT
TORSDOF 0
REMARK  Name = ../refined-set-2016/2p3c/2p3c_pocket.pdb
REMARK  254 active torsions:
REMARK  status: ('A' for Active; 'I' for Inactive)
REMARK    1  A    between atoms: _1  and  _3
REMARK    2  A    between atoms: _3  and  _4
REMARK    3  A    between atoms: _3  and  _6
REMARK    4  A    between atoms: _6  and  _7
REMARK    5  A    between atoms: _7  and  _8
REMARK    6  A    between atoms: _8  and  _9
REMARK    7  A    between atoms: _9  and  _10
REMARK    8  A    between atoms: _14  and  _16
REMARK    9  A    between atoms: _16  and  _17
REMARK   10  A    between atoms: _16  and  _19
REMARK   11  A    between atoms: _19  and  _20
REMARK   12  A    between atoms: _20  and  _21
REMARK   13  A    between atoms: _21  and  _22
REMARK   14  A    between atoms: _31  and  _33
REMARK   15  A    between atoms: _33  and  _34
REMARK   16  A    between atoms: _33  and  _36
REMARK   17  A    between atoms: _36  and  _37
REMARK   18  A    between atoms: _40  and  _42
REMARK   19  A    between atoms: _42  and  _43
REMARK   20  A    between atoms: _42  and  _45
REMARK   21  A    between atoms: _45  and  _46
REMARK   22  A    between atoms: _49  and  _51
REMARK   23  A    between atoms: _51  and  _52
REMARK   24  A    between atoms: _51  and  _54
REMARK   25  A    between atoms: _54  and  _55
REMARK   26  A    between atoms: _58  and  _60
REMARK   27  A    between atoms: _60  and  _61
REMARK   28  A    between atoms: _60  and  _63
REMARK   29  A    between atoms: _63  and  _64
REMARK   30  A    between atoms: _67  and  _69
REMARK   31  A    between atoms: _69  and  _70
REMARK   32  A    between atoms: _72  and  _74
REMARK   33  A    between atoms: _74  and  _75
REMARK   34  A    between atoms: _78  and  _80
REMARK   35  A    between atoms: _80  and  _81
REMARK   36  A    between atoms: _80  and  _83
REMARK   37  A    between atoms: _83  and  _84
REMARK   38  A    between atoms: _87  and  _89
REMARK   39  A    between atoms: _89  and  _90
REMARK   40  A    between atoms: _89  and  _92
REMARK   41  A    between atoms: _92  and  _93
REMARK   42  A    between atoms: _96  and  _98
REMARK   43  A    between atoms: _98  and  _99
REMARK   44  A    between atoms: _98  and  _101
REMARK   45  A    between atoms: _101  and  _102
REMARK   46  A    between atoms: _105  and  _107
REMARK   47  A    between atoms: _107  and  _108
REMARK   48  A    between atoms: _107  and  _110
REMARK   49  A    between atoms: _113  and  _115
REMARK   50  A    between atoms: _115  and  _116
REMARK   51  A    between atoms: _115  and  _118
REMARK   52  A    between atoms: _118  and  _119
REMARK   53  A    between atoms: _119  and  _120
REMARK   54  A    between atoms: _120  and  _121
REMARK   55  A    between atoms: _121  and  _122
REMARK   56  A    between atoms: _126  and  _128
REMARK   57  A    between atoms: _128  and  _129
REMARK   58  A    between atoms: _128  and  _131
REMARK   59  A    between atoms: _131  and  _132
REMARK   60  A    between atoms: _132  and  _133
REMARK   61  A    between atoms: _135  and  _137
REMARK   62  A    between atoms: _137  and  _138
REMARK   63  A    between atoms: _137  and  _140
REMARK   64  A    between atoms: _140  and  _141
REMARK   65  A    between atoms: _144  and  _146
REMARK   66  A    between atoms: _146  and  _147
REMARK   67  A    between atoms: _149  and  _151
REMARK   68  A    between atoms: _151  and  _152
REMARK   69  A    between atoms: _154  and  _156
REMARK   70  A    between atoms: _156  and  _157
REMARK   71  A    between atoms: _156  and  _159
REMARK   72  A    between atoms: _159  and  _160
REMARK   73  A    between atoms: _163  and  _165
REMARK   74  A    between atoms: _165  and  _166
REMARK   75  A    between atoms: _168  and  _170
REMARK   76  A    between atoms: _170  and  _171
REMARK   77  A    between atoms: _173  and  _175
REMARK   78  A    between atoms: _175  and  _176
REMARK   79  A    between atoms: _175  and  _178
REMARK   80  A    between atoms: _178  and  _179
REMARK   81  A    between atoms: _185  and  _187
REMARK   82  A    between atoms: _187  and  _188
REMARK   83  A    between atoms: _187  and  _190
REMARK   84  A    between atoms: _190  and  _191
REMARK   85  A    between atoms: _194  and  _196
REMARK   86  A    between atoms: _196  and  _197
REMARK   87  A    between atoms: _196  and  _199
REMARK   88  A    between atoms: _202  and  _204
REMARK   89  A    between atoms: _204  and  _205
REMARK   90  A    between atoms: _204  and  _207
REMARK   91  A    between atoms: _207  and  _208
REMARK   92  A    between atoms: _208  and  _209
REMARK   93  A    between atoms: _214  and  _216
REMARK   94  A    between atoms: _216  and  _217
REMARK   95  A    between atoms: _216  and  _219
REMARK   96  A    between atoms: _219  and  _220
REMARK   97  A    between atoms: _224  and  _225
REMARK   98  A    between atoms: _230  and  _232
REMARK   99  A    between atoms: _232  and  _233
REMARK  100  A    between atoms: _232  and  _235
REMARK  101  A    between atoms: _235  and  _236
REMARK  102  A    between atoms: _240  and  _241
REMARK  103  A    between atoms: _246  and  _248
REMARK  104  A    between atoms: _248  and  _249
REMARK  105  A    between atoms: _248  and  _251
REMARK  106  A    between atoms: _254  and  _256
REMARK  107  A    between atoms: _256  and  _257
REMARK  108  A    between atoms: _256  and  _259
REMARK  109  A    between atoms: _259  and  _260
REMARK  110  A    between atoms: _265  and  _267
REMARK  111  A    between atoms: _267  and  _268
REMARK  112  A    between atoms: _267  and  _270
REMARK  113  A    between atoms: _270  and  _271
REMARK  114  A    between atoms: _274  and  _276
REMARK  115  A    between atoms: _276  and  _277
REMARK  116  A    between atoms: _276  and  _279
REMARK  117  A    between atoms: _279  and  _280
REMARK  118  A    between atoms: _283  and  _285
REMARK  119  A    between atoms: _285  and  _286
REMARK  120  A    between atoms: _288  and  _290
REMARK  121  A    between atoms: _290  and  _291
REMARK  122  A    between atoms: _290  and  _293
REMARK  123  A    between atoms: _293  and  _294
REMARK  124  A    between atoms: _294  and  _295
REMARK  125  A    between atoms: _295  and  _296
REMARK  126  A    between atoms: _305  and  _307
REMARK  127  A    between atoms: _307  and  _308
REMARK  128  A    between atoms: _307  and  _310
REMARK  129  A    between atoms: _310  and  _311
REMARK  130  A    between atoms: _316  and  _318
REMARK  131  A    between atoms: _318  and  _319
REMARK  132  A    between atoms: _318  and  _321
REMARK  133  A    between atoms: _321  and  _322
REMARK  134  A    between atoms: _322  and  _323
REMARK  135  A    between atoms: _323  and  _324
REMARK  136  A    between atoms: _324  and  _325
REMARK  137  A    between atoms: _329  and  _331
REMARK  138  A    between atoms: _331  and  _332
REMARK  139  A    between atoms: _331  and  _334
REMARK  140  A    between atoms: _334  and  _335
REMARK  141  A    between atoms: _335  and  _336
REMARK  142  A    between atoms: _336  and  _337
REMARK  143  A    between atoms: _346  and  _348
REMARK  144  A    between atoms: _348  and  _349
REMARK  145  A    between atoms: _348  and  _351
REMARK  146  A    between atoms: _351  and  _352
REMARK  147  A    between atoms: _355  and  _357
REMARK  148  A    between atoms: _357  and  _358
REMARK  149  A    between atoms: _357  and  _360
REMARK  150  A    between atoms: _360  and  _361
REMARK  151  A    between atoms: _364  and  _366
REMARK  152  A    between atoms: _366  and  _367
REMARK  153  A    between atoms: _366  and  _369
REMARK  154  A    between atoms: _369  and  _370
REMARK  155  A    between atoms: _373  and  _375
REMARK  156  A    between atoms: _375  and  _376
REMARK  157  A    between atoms: _375  and  _378
REMARK  158  A    between atoms: _378  and  _379
REMARK  159  A    between atoms: _382  and  _384
REMARK  160  A    between atoms: _384  and  _385
REMARK  161  A    between atoms: _387  and  _389
REMARK  162  A    between atoms: _389  and  _390
REMARK  163  A    between atoms: _393  and  _395
REMARK  164  A    between atoms: _395  and  _396
REMARK  165  A    between atoms: _395  and  _398
REMARK  166  A    between atoms: _398  and  _399
REMARK  167  A    between atoms: _402  and  _404
REMARK  168  A    between atoms: _404  and  _405
REMARK  169  A    between atoms: _404  and  _407
REMARK  170  A    between atoms: _407  and  _408
REMARK  171  A    between atoms: _411  and  _413
REMARK  172  A    between atoms: _413  and  _414
REMARK  173  A    between atoms: _413  and  _416
REMARK  174  A    between atoms: _416  and  _417
REMARK  175  A    between atoms: _420  and  _422
REMARK  176  A    between atoms: _422  and  _423
REMARK  177  A    between atoms: _422  and  _425
REMARK  178  A    between atoms: _428  and  _430
REMARK  179  A    between atoms: _430  and  _431
REMARK  180  A    between atoms: _430  and  _433
REMARK  181  A    between atoms: _433  and  _434
REMARK  182  A    between atoms: _434  and  _435
REMARK  183  A    between atoms: _435  and  _436
REMARK  184  A    between atoms: _436  and  _437
REMARK  185  A    between atoms: _441  and  _443
REMARK  186  A    between atoms: _443  and  _444
REMARK  187  A    between atoms: _443  and  _446
REMARK  188  A    between atoms: _446  and  _447
REMARK  189  A    between atoms: _447  and  _448
REMARK  190  A    between atoms: _450  and  _452
REMARK  191  A    between atoms: _452  and  _453
REMARK  192  A    between atoms: _452  and  _455
REMARK  193  A    between atoms: _455  and  _456
REMARK  194  A    between atoms: _459  and  _461
REMARK  195  A    between atoms: _461  and  _462
REMARK  196  A    between atoms: _464  and  _466
REMARK  197  A    between atoms: _466  and  _467
REMARK  198  A    between atoms: _469  and  _471
REMARK  199  A    between atoms: _471  and  _472
REMARK  200  A    between atoms: _471  and  _474
REMARK  201  A    between atoms: _474  and  _475
REMARK  202  A    between atoms: _478  and  _480
REMARK  203  A    between atoms: _480  and  _481
REMARK  204  A    between atoms: _483  and  _485
REMARK  205  A    between atoms: _485  and  _486
REMARK  206  A    between atoms: _488  and  _490
REMARK  207  A    between atoms: _490  and  _491
REMARK  208  A    between atoms: _490  and  _493
REMARK  209  A    between atoms: _493  and  _494
REMARK  210  A    between atoms: _500  and  _502
REMARK  211  A    between atoms: _502  and  _503
REMARK  212  A    between atoms: _502  and  _505
REMARK  213  A    between atoms: _505  and  _506
REMARK  214  A    between atoms: _509  and  _511
REMARK  215  A    between atoms: _511  and  _512
REMARK  216  A    between atoms: _511  and  _514
REMARK  217  A    between atoms: _517  and  _519
REMARK  218  A    between atoms: _519  and  _520
REMARK  219  A    between atoms: _519  and  _522
REMARK  220  A    between atoms: _522  and  _523
REMARK  221  A    between atoms: _523  and  _524
REMARK  222  A    between atoms: _529  and  _531
REMARK  223  A    between atoms: _531  and  _532
REMARK  224  A    between atoms: _531  and  _534
REMARK  225  A    between atoms: _534  and  _535
REMARK  226  A    between atoms: _539  and  _540
REMARK  227  A    between atoms: _545  and  _547
REMARK  228  A    between atoms: _547  and  _548
REMARK  229  A    between atoms: _547  and  _550
REMARK  230  A    between atoms: _550  and  _551
REMARK  231  A    between atoms: _555  and  _556
REMARK  232  A    between atoms: _561  and  _563
REMARK  233  A    between atoms: _563  and  _564
REMARK  234  A    between atoms: _563  and  _566
REMARK  235  A    between atoms: _569  and  _571
REMARK  236  A    between atoms: _571  and  _572
REMARK  237  A    between atoms: _571  and  _574
REMARK  238  A    between atoms: _574  and  _575
REMARK  239  A    between atoms: _580  and  _582
REMARK  240  A    between atoms: _582  and  _583
REMARK  241  A    between atoms: _582  and  _585
REMARK  242  A    between atoms: _585  and  _586
REMARK  243  A    between atoms: _589  and  _591
REMARK  244  A    between atoms: _591  and  _592
REMARK  245  A    between atoms: _591  and  _594
REMARK  246  A    between atoms: _594  and  _595
REMARK  247  A    between atoms: _598  and  _600
REMARK  248  A    between atoms: _600  and  _601
REMARK  249  A    between atoms: _603  and  _605
REMARK  250  A    between atoms: _605  and  _606
REMARK  251  A    between atoms: _605  and  _608
REMARK  252  A    between atoms: _608  and  _609
REMARK  253  A    between atoms: _609  and  _610
REMARK  254  A    between atoms: _610  and  _611
REMARK                            x       y       z     vdW  Elec       q    Type
REMARK                         _______ _______ _______ _____ _____    ______ ____
ROOT
ATOM      1  O   HOH     1      -0.441 -11.387  27.097  0.00  0.00    +0.000 OA
ENDROOT
TORSDOF 0
REMARK  Name = ../refined-set-2016/2p3c/2p3c_pocket.pdb
REMARK  254 active torsions:
REMARK  status: ('A' for Active; 'I' for Inactive)
REMARK    1  A    between atoms: _1  and  _3
REMARK    2  A    between atoms: _3  and  _4
REMARK    3  A    between atoms: _3  and  _6
REMARK    4  A    between atoms: _6  and  _7
REMARK    5  A    between atoms: _7  and  _8
REMARK    6  A    between atoms: _8  and  _9
REMARK    7  A    between atoms: _9  and  _10
REMARK    8  A    between atoms: _14  and  _16
REMARK    9  A    between atoms: _16  and  _17
REMARK   10  A    between atoms: _16  and  _19
REMARK   11  A    between atoms: _19  and  _20
REMARK   12  A    between atoms: _20  and  _21
REMARK   13  A    between atoms: _21  and  _22
REMARK   14  A    between atoms: _31  and  _33
REMARK   15  A    between atoms: _33  and  _34
REMARK   16  A    between atoms: _33  and  _36
REMARK   17  A    between atoms: _36  and  _37
REMARK   18  A    between atoms: _40  and  _42
REMARK   19  A    between atoms: _42  and  _43
REMARK   20  A    between atoms: _42  and  _45
REMARK   21  A    between atoms: _45  and  _46
REMARK   22  A    between atoms: _49  and  _51
REMARK   23  A    between atoms: _51  and  _52
REMARK   24  A    between atoms: _51  and  _54
REMARK   25  A    between atoms: _54  and  _55
REMARK   26  A    between atoms: _58  and  _60
REMARK   27  A    between atoms: _60  and  _61
REMARK   28  A    between atoms: _60  and  _63
REMARK   29  A    between atoms: _63  and  _64
REMARK   30  A    between atoms: _67  and  _69
REMARK   31  A    between atoms: _69  and  _70
REMARK   32  A    between atoms: _72  and  _74
REMARK   33  A    between atoms: _74  and  _75
REMARK   34  A    between atoms: _78  and  _80
REMARK   35  A    between atoms: _80  and  _81
REMARK   36  A    between atoms: _80  and  _83
REMARK   37  A    between atoms: _83  and  _84
REMARK   38  A    between atoms: _87  and  _89
REMARK   39  A    between atoms: _89  and  _90
REMARK   40  A    between atoms: _89  and  _92
REMARK   41  A    between atoms: _92  and  _93
REMARK   42  A    between atoms: _96  and  _98
REMARK   43  A    between atoms: _98  and  _99
REMARK   44  A    between atoms: _98  and  _101
REMARK   45  A    between atoms: _101  and  _102
REMARK   46  A    between atoms: _105  and  _107
REMARK   47  A    between atoms: _107  and  _108
REMARK   48  A    between atoms: _107  and  _110
REMARK   49  A    between atoms: _113  and  _115
REMARK   50  A    between atoms: _115  and  _116
REMARK   51  A    between atoms: _115  and  _118
REMARK   52  A    between atoms: _118  and  _119
REMARK   53  A    between atoms: _119  and  _120
REMARK   54  A    between atoms: _120  and  _121
REMARK   55  A    between atoms: _121  and  _122
REMARK   56  A    between atoms: _126  and  _128
REMARK   57  A    between atoms: _128  and  _129
REMARK   58  A    between atoms: _128  and  _131
REMARK   59  A    between atoms: _131  and  _132
REMARK   60  A    between atoms: _132  and  _133
REMARK   61  A    between atoms: _135  and  _137
REMARK   62  A    between atoms: _137  and  _138
REMARK   63  A    between atoms: _137  and  _140
REMARK   64  A    between atoms: _140  and  _141
REMARK   65  A    between atoms: _144  and  _146
REMARK   66  A    between atoms: _146  and  _147
REMARK   67  A    between atoms: _149  and  _151
REMARK   68  A    between atoms: _151  and  _152
REMARK   69  A    between atoms: _154  and  _156
REMARK   70  A    between atoms: _156  and  _157
REMARK   71  A    between atoms: _156  and  _159
REMARK   72  A    between atoms: _159  and  _160
REMARK   73  A    between atoms: _163  and  _165
REMARK   74  A    between atoms: _165  and  _166
REMARK   75  A    between atoms: _168  and  _170
REMARK   76  A    between atoms: _170  and  _171
REMARK   77  A    between atoms: _173  and  _175
REMARK   78  A    between atoms: _175  and  _176
REMARK   79  A    between atoms: _175  and  _178
REMARK   80  A    between atoms: _178  and  _179
REMARK   81  A    between atoms: _185  and  _187
REMARK   82  A    between atoms: _187  and  _188
REMARK   83  A    between atoms: _187  and  _190
REMARK   84  A    between atoms: _190  and  _191
REMARK   85  A    between atoms: _194  and  _196
REMARK   86  A    between atoms: _196  and  _197
REMARK   87  A    between atoms: _196  and  _199
REMARK   88  A    between atoms: _202  and  _204
REMARK   89  A    between atoms: _204  and  _205
REMARK   90  A    between atoms: _204  and  _207
REMARK   91  A    between atoms: _207  and  _208
REMARK   92  A    between atoms: _208  and  _209
REMARK   93  A    between atoms: _214  and  _216
REMARK   94  A    between atoms: _216  and  _217
REMARK   95  A    between atoms: _216  and  _219
REMARK   96  A    between atoms: _219  and  _220
REMARK   97  A    between atoms: _224  and  _225
REMARK   98  A    between atoms: _230  and  _232
REMARK   99  A    between atoms: _232  and  _233
REMARK  100  A    between atoms: _232  and  _235
REMARK  101  A    between atoms: _235  and  _236
REMARK  102  A    between atoms: _240  and  _241
REMARK  103  A    between atoms: _246  and  _248
REMARK  104  A    between atoms: _248  and  _249
REMARK  105  A    between atoms: _248  and  _251
REMARK  106  A    between atoms: _254  and  _256
REMARK  107  A    between atoms: _256  and  _257
REMARK  108  A    between atoms: _256  and  _259
REMARK  109  A    between atoms: _259  and  _260
REMARK  110  A    between atoms: _265  and  _267
REMARK  111  A    between atoms: _267  and  _268
REMARK  112  A    between atoms: _267  and  _270
REMARK  113  A    between atoms: _270  and  _271
REMARK  114  A    between atoms: _274  and  _276
REMARK  115  A    between atoms: _276  and  _277
REMARK  116  A    between atoms: _276  and  _279
REMARK  117  A    between atoms: _279  and  _280
REMARK  118  A    between atoms: _283  and  _285
REMARK  119  A    between atoms: _285  and  _286
REMARK  120  A    between atoms: _288  and  _290
REMARK  121  A    between atoms: _290  and  _291
REMARK  122  A    between atoms: _290  and  _293
REMARK  123  A    between atoms: _293  and  _294
REMARK  124  A    between atoms: _294  and  _295
REMARK  125  A    between atoms: _295  and  _296
REMARK  126  A    between atoms: _305  and  _307
REMARK  127  A    between atoms: _307  and  _308
REMARK  128  A    between atoms: _307  and  _310
REMARK  129  A    between atoms: _310  and  _311
REMARK  130  A    between atoms: _316  and  _318
REMARK  131  A    between atoms: _318  and  _319
REMARK  132  A    between atoms: _318  and  _321
REMARK  133  A    between atoms: _321  and  _322
REMARK  134  A    between atoms: _322  and  _323
REMARK  135  A    between atoms: _323  and  _324
REMARK  136  A    between atoms: _324  and  _325
REMARK  137  A    between atoms: _329  and  _331
REMARK  138  A    between atoms: _331  and  _332
REMARK  139  A    between atoms: _331  and  _334
REMARK  140  A    between atoms: _334  and  _335
REMARK  141  A    between atoms: _335  and  _336
REMARK  142  A    between atoms: _336  and  _337
REMARK  143  A    between atoms: _346  and  _348
REMARK  144  A    between atoms: _348  and  _349
REMARK  145  A    between atoms: _348  and  _351
REMARK  146  A    between atoms: _351  and  _352
REMARK  147  A    between atoms: _355  and  _357
REMARK  148  A    between atoms: _357  and  _358
REMARK  149  A    between atoms: _357  and  _360
REMARK  150  A    between atoms: _360  and  _361
REMARK  151  A    between atoms: _364  and  _366
REMARK  152  A    between atoms: _366  and  _367
REMARK  153  A    between atoms: _366  and  _369
REMARK  154  A    between atoms: _369  and  _370
REMARK  155  A    between atoms: _373  and  _375
REMARK  156  A    between atoms: _375  and  _376
REMARK  157  A    between atoms: _375  and  _378
REMARK  158  A    between atoms: _378  and  _379
REMARK  159  A    between atoms: _382  and  _384
REMARK  160  A    between atoms: _384  and  _385
REMARK  161  A    between atoms: _387  and  _389
REMARK  162  A    between atoms: _389  and  _390
REMARK  163  A    between atoms: _393  and  _395
REMARK  164  A    between atoms: _395  and  _396
REMARK  165  A    between atoms: _395  and  _398
REMARK  166  A    between atoms: _398  and  _399
REMARK  167  A    between atoms: _402  and  _404
REMARK  168  A    between atoms: _404  and  _405
REMARK  169  A    between atoms: _404  and  _407
REMARK  170  A    between atoms: _407  and  _408
REMARK  171  A    between atoms: _411  and  _413
REMARK  172  A    between atoms: _413  and  _414
REMARK  173  A    between atoms: _413  and  _416
REMARK  174  A    between atoms: _416  and  _417
REMARK  175  A    between atoms: _420  and  _422
REMARK  176  A    between atoms: _422  and  _423
REMARK  177  A    between atoms: _422  and  _425
REMARK  178  A    between atoms: _428  and  _430
REMARK  179  A    between atoms: _430  and  _431
REMARK  180  A    between atoms: _430  and  _433
REMARK  181  A    between atoms: _433  and  _434
REMARK  182  A    between atoms: _434  and  _435
REMARK  183  A    between atoms: _435  and  _436
REMARK  184  A    between atoms: _436  and  _437
REMARK  185  A    between atoms: _441  and  _443
REMARK  186  A    between atoms: _443  and  _444
REMARK  187  A    between atoms: _443  and  _446
REMARK  188  A    between atoms: _446  and  _447
REMARK  189  A    between atoms: _447  and  _448
REMARK  190  A    between atoms: _450  and  _452
REMARK  191  A    between atoms: _452  and  _453
REMARK  192  A    between atoms: _452  and  _455
REMARK  193  A    between atoms: _455  and  _456
REMARK  194  A    between atoms: _459  and  _461
REMARK  195  A    between atoms: _461  and  _462
REMARK  196  A    between atoms: _464  and  _466
REMARK  197  A    between atoms: _466  and  _467
REMARK  198  A    between atoms: _469  and  _471
REMARK  199  A    between atoms: _471  and  _472
REMARK  200  A    between atoms: _471  and  _474
REMARK  201  A    between atoms: _474  and  _475
REMARK  202  A    between atoms: _478  and  _480
REMARK  203  A    between atoms: _480  and  _481
REMARK  204  A    between atoms: _483  and  _485
REMARK  205  A    between atoms: _485  and  _486
REMARK  206  A    between atoms: _488  and  _490
REMARK  207  A    between atoms: _490  and  _491
REMARK  208  A    between atoms: _490  and  _493
REMARK  209  A    between atoms: _493  and  _494
REMARK  210  A    between atoms: _500  and  _502
REMARK  211  A    between atoms: _502  and  _503
REMARK  212  A    between atoms: _502  and  _505
REMARK  213  A    between atoms: _505  and  _506
REMARK  214  A    between atoms: _509  and  _511
REMARK  215  A    between atoms: _511  and  _512
REMARK  216  A    between atoms: _511  and  _514
REMARK  217  A    between atoms: _517  and  _519
REMARK  218  A    between atoms: _519  and  _520
REMARK  219  A    between atoms: _519  and  _522
REMARK  220  A    between atoms: _522  and  _523
REMARK  221  A    between atoms: _523  and  _524
REMARK  222  A    between atoms: _529  and  _531
REMARK  223  A    between atoms: _531  and  _532
REMARK  224  A    between atoms: _531  and  _534
REMARK  225  A    between atoms: _534  and  _535
REMARK  226  A    between atoms: _539  and  _540
REMARK  227  A    between atoms: _545  and  _547
REMARK  228  A    between atoms: _547  and  _548
REMARK  229  A    between atoms: _547  and  _550
REMARK  230  A    between atoms: _550  and  _551
REMARK  231  A    between atoms: _555  and  _556
REMARK  232  A    between atoms: _561  and  _563
REMARK  233  A    between atoms: _563  and  _564
REMARK  234  A    between atoms: _563  and  _566
REMARK  235  A    between atoms: _569  and  _571
REMARK  236  A    between atoms: _571  and  _572
REMARK  237  A    between atoms: _571  and  _574
REMARK  238  A    between atoms: _574  and  _575
REMARK  239  A    between atoms: _580  and  _582
REMARK  240  A    between atoms: _582  and  _583
REMARK  241  A    between atoms: _582  and  _585
REMARK  242  A    between atoms: _585  and  _586
REMARK  243  A    between atoms: _589  and  _591
REMARK  244  A    between atoms: _591  and  _592
REMARK  245  A    between atoms: _591  and  _594
REMARK  246  A    between atoms: _594  and  _595
REMARK  247  A    between atoms: _598  and  _600
REMARK  248  A    between atoms: _600  and  _601
REMARK  249  A    between atoms: _603  and  _605
REMARK  250  A    between atoms: _605  and  _606
REMARK  251  A    between atoms: _605  and  _608
REMARK  252  A    between atoms: _608  and  _609
REMARK  253  A    between atoms: _609  and  _610
REMARK  254  A    between atoms: _610  and  _611
REMARK                            x       y       z     vdW  Elec       q    Type
REMARK                         _______ _______ _______ _____ _____    ______ ____
ROOT
ATOM      1  O   HOH     1      -5.858 -20.621  17.888  0.00  0.00    +0.000 OA
ENDROOT
TORSDOF 0
REMARK  Name = ../refined-set-2016/2p3c/2p3c_pocket.pdb
REMARK  254 active torsions:
REMARK  status: ('A' for Active; 'I' for Inactive)
REMARK    1  A    between atoms: _1  and  _3
REMARK    2  A    between atoms: _3  and  _4
REMARK    3  A    between atoms: _3  and  _6
REMARK    4  A    between atoms: _6  and  _7
REMARK    5  A    between atoms: _7  and  _8
REMARK    6  A    between atoms: _8  and  _9
REMARK    7  A    between atoms: _9  and  _10
REMARK    8  A    between atoms: _14  and  _16
REMARK    9  A    between atoms: _16  and  _17
REMARK   10  A    between atoms: _16  and  _19
REMARK   11  A    between atoms: _19  and  _20
REMARK   12  A    between atoms: _20  and  _21
REMARK   13  A    between atoms: _21  and  _22
REMARK   14  A    between atoms: _31  and  _33
REMARK   15  A    between atoms: _33  and  _34
REMARK   16  A    between atoms: _33  and  _36
REMARK   17  A    between atoms: _36  and  _37
REMARK   18  A    between atoms: _40  and  _42
REMARK   19  A    between atoms: _42  and  _43
REMARK   20  A    between atoms: _42  and  _45
REMARK   21  A    between atoms: _45  and  _46
REMARK   22  A    between atoms: _49  and  _51
REMARK   23  A    between atoms: _51  and  _52
REMARK   24  A    between atoms: _51  and  _54
REMARK   25  A    between atoms: _54  and  _55
REMARK   26  A    between atoms: _58  and  _60
REMARK   27  A    between atoms: _60  and  _61
REMARK   28  A    between atoms: _60  and  _63
REMARK   29  A    between atoms: _63  and  _64
REMARK   30  A    between atoms: _67  and  _69
REMARK   31  A    between atoms: _69  and  _70
REMARK   32  A    between atoms: _72  and  _74
REMARK   33  A    between atoms: _74  and  _75
REMARK   34  A    between atoms: _78  and  _80
REMARK   35  A    between atoms: _80  and  _81
REMARK   36  A    between atoms: _80  and  _83
REMARK   37  A    between atoms: _83  and  _84
REMARK   38  A    between atoms: _87  and  _89
REMARK   39  A    between atoms: _89  and  _90
REMARK   40  A    between atoms: _89  and  _92
REMARK   41  A    between atoms: _92  and  _93
REMARK   42  A    between atoms: _96  and  _98
REMARK   43  A    between atoms: _98  and  _99
REMARK   44  A    between atoms: _98  and  _101
REMARK   45  A    between atoms: _101  and  _102
REMARK   46  A    between atoms: _105  and  _107
REMARK   47  A    between atoms: _107  and  _108
REMARK   48  A    between atoms: _107  and  _110
REMARK   49  A    between atoms: _113  and  _115
REMARK   50  A    between atoms: _115  and  _116
REMARK   51  A    between atoms: _115  and  _118
REMARK   52  A    between atoms: _118  and  _119
REMARK   53  A    between atoms: _119  and  _120
REMARK   54  A    between atoms: _120  and  _121
REMARK   55  A    between atoms: _121  and  _122
REMARK   56  A    between atoms: _126  and  _128
REMARK   57  A    between atoms: _128  and  _129
REMARK   58  A    between atoms: _128  and  _131
REMARK   59  A    between atoms: _131  and  _132
REMARK   60  A    between atoms: _132  and  _133
REMARK   61  A    between atoms: _135  and  _137
REMARK   62  A    between atoms: _137  and  _138
REMARK   63  A    between atoms: _137  and  _140
REMARK   64  A    between atoms: _140  and  _141
REMARK   65  A    between atoms: _144  and  _146
REMARK   66  A    between atoms: _146  and  _147
REMARK   67  A    between atoms: _149  and  _151
REMARK   68  A    between atoms: _151  and  _152
REMARK   69  A    between atoms: _154  and  _156
REMARK   70  A    between atoms: _156  and  _157
REMARK   71  A    between atoms: _156  and  _159
REMARK   72  A    between atoms: _159  and  _160
REMARK   73  A    between atoms: _163  and  _165
REMARK   74  A    between atoms: _165  and  _166
REMARK   75  A    between atoms: _168  and  _170
REMARK   76  A    between atoms: _170  and  _171
REMARK   77  A    between atoms: _173  and  _175
REMARK   78  A    between atoms: _175  and  _176
REMARK   79  A    between atoms: _175  and  _178
REMARK   80  A    between atoms: _178  and  _179
REMARK   81  A    between atoms: _185  and  _187
REMARK   82  A    between atoms: _187  and  _188
REMARK   83  A    between atoms: _187  and  _190
REMARK   84  A    between atoms: _190  and  _191
REMARK   85  A    between atoms: _194  and  _196
REMARK   86  A    between atoms: _196  and  _197
REMARK   87  A    between atoms: _196  and  _199
REMARK   88  A    between atoms: _202  and  _204
REMARK   89  A    between atoms: _204  and  _205
REMARK   90  A    between atoms: _204  and  _207
REMARK   91  A    between atoms: _207  and  _208
REMARK   92  A    between atoms: _208  and  _209
REMARK   93  A    between atoms: _214  and  _216
REMARK   94  A    between atoms: _216  and  _217
REMARK   95  A    between atoms: _216  and  _219
REMARK   96  A    between atoms: _219  and  _220
REMARK   97  A    between atoms: _224  and  _225
REMARK   98  A    between atoms: _230  and  _232
REMARK   99  A    between atoms: _232  and  _233
REMARK  100  A    between atoms: _232  and  _235
REMARK  101  A    between atoms: _235  and  _236
REMARK  102  A    between atoms: _240  and  _241
REMARK  103  A    between atoms: _246  and  _248
REMARK  104  A    between atoms: _248  and  _249
REMARK  105  A    between atoms: _248  and  _251
REMARK  106  A    between atoms: _254  and  _256
REMARK  107  A    between atoms: _256  and  _257
REMARK  108  A    between atoms: _256  and  _259
REMARK  109  A    between atoms: _259  and  _260
REMARK  110  A    between atoms: _265  and  _267
REMARK  111  A    between atoms: _267  and  _268
REMARK  112  A    between atoms: _267  and  _270
REMARK  113  A    between atoms: _270  and  _271
REMARK  114  A    between atoms: _274  and  _276
REMARK  115  A    between atoms: _276  and  _277
REMARK  116  A    between atoms: _276  and  _279
REMARK  117  A    between atoms: _279  and  _280
REMARK  118  A    between atoms: _283  and  _285
REMARK  119  A    between atoms: _285  and  _286
REMARK  120  A    between atoms: _288  and  _290
REMARK  121  A    between atoms: _290  and  _291
REMARK  122  A    between atoms: _290  and  _293
REMARK  123  A    between atoms: _293  and  _294
REMARK  124  A    between atoms: _294  and  _295
REMARK  125  A    between atoms: _295  and  _296
REMARK  126  A    between atoms: _305  and  _307
REMARK  127  A    between atoms: _307  and  _308
REMARK  128  A    between atoms: _307  and  _310
REMARK  129  A    between atoms: _310  and  _311
REMARK  130  A    between atoms: _316  and  _318
REMARK  131  A    between atoms: _318  and  _319
REMARK  132  A    between atoms: _318  and  _321
REMARK  133  A    between atoms: _321  and  _322
REMARK  134  A    between atoms: _322  and  _323
REMARK  135  A    between atoms: _323  and  _324
REMARK  136  A    between atoms: _324  and  _325
REMARK  137  A    between atoms: _329  and  _331
REMARK  138  A    between atoms: _331  and  _332
REMARK  139  A    between atoms: _331  and  _334
REMARK  140  A    between atoms: _334  and  _335
REMARK  141  A    between atoms: _335  and  _336
REMARK  142  A    between atoms: _336  and  _337
REMARK  143  A    between atoms: _346  and  _348
REMARK  144  A    between atoms: _348  and  _349
REMARK  145  A    between atoms: _348  and  _351
REMARK  146  A    between atoms: _351  and  _352
REMARK  147  A    between atoms: _355  and  _357
REMARK  148  A    between atoms: _357  and  _358
REMARK  149  A    between atoms: _357  and  _360
REMARK  150  A    between atoms: _360  and  _361
REMARK  151  A    between atoms: _364  and  _366
REMARK  152  A    between atoms: _366  and  _367
REMARK  153  A    between atoms: _366  and  _369
REMARK  154  A    between atoms: _369  and  _370
REMARK  155  A    between atoms: _373  and  _375
REMARK  156  A    between atoms: _375  and  _376
REMARK  157  A    between atoms: _375  and  _378
REMARK  158  A    between atoms: _378  and  _379
REMARK  159  A    between atoms: _382  and  _384
REMARK  160  A    between atoms: _384  and  _385
REMARK  161  A    between atoms: _387  and  _389
REMARK  162  A    between atoms: _389  and  _390
REMARK  163  A    between atoms: _393  and  _395
REMARK  164  A    between atoms: _395  and  _396
REMARK  165  A    between atoms: _395  and  _398
REMARK  166  A    between atoms: _398  and  _399
REMARK  167  A    between atoms: _402  and  _404
REMARK  168  A    between atoms: _404  and  _405
REMARK  169  A    between atoms: _404  and  _407
REMARK  170  A    between atoms: _407  and  _408
REMARK  171  A    between atoms: _411  and  _413
REMARK  172  A    between atoms: _413  and  _414
REMARK  173  A    between atoms: _413  and  _416
REMARK  174  A    between atoms: _416  and  _417
REMARK  175  A    between atoms: _420  and  _422
REMARK  176  A    between atoms: _422  and  _423
REMARK  177  A    between atoms: _422  and  _425
REMARK  178  A    between atoms: _428  and  _430
REMARK  179  A    between atoms: _430  and  _431
REMARK  180  A    between atoms: _430  and  _433
REMARK  181  A    between atoms: _433  and  _434
REMARK  182  A    between atoms: _434  and  _435
REMARK  183  A    between atoms: _435  and  _436
REMARK  184  A    between atoms: _436  and  _437
REMARK  185  A    between atoms: _441  and  _443
REMARK  186  A    between atoms: _443  and  _444
REMARK  187  A    between atoms: _443  and  _446
REMARK  188  A    between atoms: _446  and  _447
REMARK  189  A    between atoms: _447  and  _448
REMARK  190  A    between atoms: _450  and  _452
REMARK  191  A    between atoms: _452  and  _453
REMARK  192  A    between atoms: _452  and  _455
REMARK  193  A    between atoms: _455  and  _456
REMARK  194  A    between atoms: _459  and  _461
REMARK  195  A    between atoms: _461  and  _462
REMARK  196  A    between atoms: _464  and  _466
REMARK  197  A    between atoms: _466  and  _467
REMARK  198  A    between atoms: _469  and  _471
REMARK  199  A    between atoms: _471  and  _472
REMARK  200  A    between atoms: _471  and  _474
REMARK  201  A    between atoms: _474  and  _475
REMARK  202  A    between atoms: _478  and  _480
REMARK  203  A    between atoms: _480  and  _481
REMARK  204  A    between atoms: _483  and  _485
REMARK  205  A    between atoms: _485  and  _486
REMARK  206  A    between atoms: _488  and  _490
REMARK  207  A    between atoms: _490  and  _491
REMARK  208  A    between atoms: _490  and  _493
REMARK  209  A    between atoms: _493  and  _494
REMARK  210  A    between atoms: _500  and  _502
REMARK  211  A    between atoms: _502  and  _503
REMARK  212  A    between atoms: _502  and  _505
REMARK  213  A    between atoms: _505  and  _506
REMARK  214  A    between atoms: _509  and  _511
REMARK  215  A    between atoms: _511  and  _512
REMARK  216  A    between atoms: _511  and  _514
REMARK  217  A    between atoms: _517  and  _519
REMARK  218  A    between atoms: _519  and  _520
REMARK  219  A    between atoms: _519  and  _522
REMARK  220  A    between atoms: _522  and  _523
REMARK  221  A    between atoms: _523  and  _524
REMARK  222  A    between atoms: _529  and  _531
REMARK  223  A    between atoms: _531  and  _532
REMARK  224  A    between atoms: _531  and  _534
REMARK  225  A    between atoms: _534  and  _535
REMARK  226  A    between atoms: _539  and  _540
REMARK  227  A    between atoms: _545  and  _547
REMARK  228  A    between atoms: _547  and  _548
REMARK  229  A    between atoms: _547  and  _550
REMARK  230  A    between atoms: _550  and  _551
REMARK  231  A    between atoms: _555  and  _556
REMARK  232  A    between atoms: _561  and  _563
REMARK  233  A    between atoms: _563  and  _564
REMARK  234  A    between atoms: _563  and  _566
REMARK  235  A    between atoms: _569  and  _571
REMARK  236  A    between atoms: _571  and  _572
REMARK  237  A    between atoms: _571  and  _574
REMARK  238  A    between atoms: _574  and  _575
REMARK  239  A    between atoms: _580  and  _582
REMARK  240  A    between atoms: _582  and  _583
REMARK  241  A    between atoms: _582  and  _585
REMARK  242  A    between atoms: _585  and  _586
REMARK  243  A    between atoms: _589  and  _591
REMARK  244  A    between atoms: _591  and  _592
REMARK  245  A    between atoms: _591  and  _594
REMARK  246  A    between atoms: _594  and  _595
REMARK  247  A    between atoms: _598  and  _600
REMARK  248  A    between atoms: _600  and  _601
REMARK  249  A    between atoms: _603  and  _605
REMARK  250  A    between atoms: _605  and  _606
REMARK  251  A    between atoms: _605  and  _608
REMARK  252  A    between atoms: _608  and  _609
REMARK  253  A    between atoms: _609  and  _610
REMARK  254  A    between atoms: _610  and  _611
REMARK                            x       y       z     vdW  Elec       q    Type
REMARK                         _______ _______ _______ _____ _____    ______ ____
ROOT
ATOM      1  O   HOH     1      -9.948 -18.051  27.653  0.00  0.00    +0.000 OA
ENDROOT
TORSDOF 0
REMARK  Name = ../refined-set-2016/2p3c/2p3c_pocket.pdb
REMARK  254 active torsions:
REMARK  status: ('A' for Active; 'I' for Inactive)
REMARK    1  A    between atoms: _1  and  _3
REMARK    2  A    between atoms: _3  and  _4
REMARK    3  A    between atoms: _3  and  _6
REMARK    4  A    between atoms: _6  and  _7
REMARK    5  A    between atoms: _7  and  _8
REMARK    6  A    between atoms: _8  and  _9
REMARK    7  A    between atoms: _9  and  _10
REMARK    8  A    between atoms: _14  and  _16
REMARK    9  A    between atoms: _16  and  _17
REMARK   10  A    between atoms: _16  and  _19
REMARK   11  A    between atoms: _19  and  _20
REMARK   12  A    between atoms: _20  and  _21
REMARK   13  A    between atoms: _21  and  _22
REMARK   14  A    between atoms: _31  and  _33
REMARK   15  A    between atoms: _33  and  _34
REMARK   16  A    between atoms: _33  and  _36
REMARK   17  A    between atoms: _36  and  _37
REMARK   18  A    between atoms: _40  and  _42
REMARK   19  A    between atoms: _42  and  _43
REMARK   20  A    between atoms: _42  and  _45
REMARK   21  A    between atoms: _45  and  _46
REMARK   22  A    between atoms: _49  and  _51
REMARK   23  A    between atoms: _51  and  _52
REMARK   24  A    between atoms: _51  and  _54
REMARK   25  A    between atoms: _54  and  _55
REMARK   26  A    between atoms: _58  and  _60
REMARK   27  A    between atoms: _60  and  _61
REMARK   28  A    between atoms: _60  and  _63
REMARK   29  A    between atoms: _63  and  _64
REMARK   30  A    between atoms: _67  and  _69
REMARK   31  A    between atoms: _69  and  _70
REMARK   32  A    between atoms: _72  and  _74
REMARK   33  A    between atoms: _74  and  _75
REMARK   34  A    between atoms: _78  and  _80
REMARK   35  A    between atoms: _80  and  _81
REMARK   36  A    between atoms: _80  and  _83
REMARK   37  A    between atoms: _83  and  _84
REMARK   38  A    between atoms: _87  and  _89
REMARK   39  A    between atoms: _89  and  _90
REMARK   40  A    between atoms: _89  and  _92
REMARK   41  A    between atoms: _92  and  _93
REMARK   42  A    between atoms: _96  and  _98
REMARK   43  A    between atoms: _98  and  _99
REMARK   44  A    between atoms: _98  and  _101
REMARK   45  A    between atoms: _101  and  _102
REMARK   46  A    between atoms: _105  and  _107
REMARK   47  A    between atoms: _107  and  _108
REMARK   48  A    between atoms: _107  and  _110
REMARK   49  A    between atoms: _113  and  _115
REMARK   50  A    between atoms: _115  and  _116
REMARK   51  A    between atoms: _115  and  _118
REMARK   52  A    between atoms: _118  and  _119
REMARK   53  A    between atoms: _119  and  _120
REMARK   54  A    between atoms: _120  and  _121
REMARK   55  A    between atoms: _121  and  _122
REMARK   56  A    between atoms: _126  and  _128
REMARK   57  A    between atoms: _128  and  _129
REMARK   58  A    between atoms: _128  and  _131
REMARK   59  A    between atoms: _131  and  _132
REMARK   60  A    between atoms: _132  and  _133
REMARK   61  A    between atoms: _135  and  _137
REMARK   62  A    between atoms: _137  and  _138
REMARK   63  A    between atoms: _137  and  _140
REMARK   64  A    between atoms: _140  and  _141
REMARK   65  A    between atoms: _144  and  _146
REMARK   66  A    between atoms: _146  and  _147
REMARK   67  A    between atoms: _149  and  _151
REMARK   68  A    between atoms: _151  and  _152
REMARK   69  A    between atoms: _154  and  _156
REMARK   70  A    between atoms: _156  and  _157
REMARK   71  A    between atoms: _156  and  _159
REMARK   72  A    between atoms: _159  and  _160
REMARK   73  A    between atoms: _163  and  _165
REMARK   74  A    between atoms: _165  and  _166
REMARK   75  A    between atoms: _168  and  _170
REMARK   76  A    between atoms: _170  and  _171
REMARK   77  A    between atoms: _173  and  _175
REMARK   78  A    between atoms: _175  and  _176
REMARK   79  A    between atoms: _175  and  _178
REMARK   80  A    between atoms: _178  and  _179
REMARK   81  A    between atoms: _185  and  _187
REMARK   82  A    between atoms: _187  and  _188
REMARK   83  A    between atoms: _187  and  _190
REMARK   84  A    between atoms: _190  and  _191
REMARK   85  A    between atoms: _194  and  _196
REMARK   86  A    between atoms: _196  and  _197
REMARK   87  A    between atoms: _196  and  _199
REMARK   88  A    between atoms: _202  and  _204
REMARK   89  A    between atoms: _204  and  _205
REMARK   90  A    between atoms: _204  and  _207
REMARK   91  A    between atoms: _207  and  _208
REMARK   92  A    between atoms: _208  and  _209
REMARK   93  A    between atoms: _214  and  _216
REMARK   94  A    between atoms: _216  and  _217
REMARK   95  A    between atoms: _216  and  _219
REMARK   96  A    between atoms: _219  and  _220
REMARK   97  A    between atoms: _224  and  _225
REMARK   98  A    between atoms: _230  and  _232
REMARK   99  A    between atoms: _232  and  _233
REMARK  100  A    between atoms: _232  and  _235
REMARK  101  A    between atoms: _235  and  _236
REMARK  102  A    between atoms: _240  and  _241
REMARK  103  A    between atoms: _246  and  _248
REMARK  104  A    between atoms: _248  and  _249
REMARK  105  A    between atoms: _248  and  _251
REMARK  106  A    between atoms: _254  and  _256
REMARK  107  A    between atoms: _256  and  _257
REMARK  108  A    between atoms: _256  and  _259
REMARK  109  A    between atoms: _259  and  _260
REMARK  110  A    between atoms: _265  and  _267
REMARK  111  A    between atoms: _267  and  _268
REMARK  112  A    between atoms: _267  and  _270
REMARK  113  A    between atoms: _270  and  _271
REMARK  114  A    between atoms: _274  and  _276
REMARK  115  A    between atoms: _276  and  _277
REMARK  116  A    between atoms: _276  and  _279
REMARK  117  A    between atoms: _279  and  _280
REMARK  118  A    between atoms: _283  and  _285
REMARK  119  A    between atoms: _285  and  _286
REMARK  120  A    between atoms: _288  and  _290
REMARK  121  A    between atoms: _290  and  _291
REMARK  122  A    between atoms: _290  and  _293
REMARK  123  A    between atoms: _293  and  _294
REMARK  124  A    between atoms: _294  and  _295
REMARK  125  A    between atoms: _295  and  _296
REMARK  126  A    between atoms: _305  and  _307
REMARK  127  A    between atoms: _307  and  _308
REMARK  128  A    between atoms: _307  and  _310
REMARK  129  A    between atoms: _310  and  _311
REMARK  130  A    between atoms: _316  and  _318
REMARK  131  A    between atoms: _318  and  _319
REMARK  132  A    between atoms: _318  and  _321
REMARK  133  A    between atoms: _321  and  _322
REMARK  134  A    between atoms: _322  and  _323
REMARK  135  A    between atoms: _323  and  _324
REMARK  136  A    between atoms: _324  and  _325
REMARK  137  A    between atoms: _329  and  _331
REMARK  138  A    between atoms: _331  and  _332
REMARK  139  A    between atoms: _331  and  _334
REMARK  140  A    between atoms: _334  and  _335
REMARK  141  A    between atoms: _335  and  _336
REMARK  142  A    between atoms: _336  and  _337
REMARK  143  A    between atoms: _346  and  _348
REMARK  144  A    between atoms: _348  and  _349
REMARK  145  A    between atoms: _348  and  _351
REMARK  146  A    between atoms: _351  and  _352
REMARK  147  A    between atoms: _355  and  _357
REMARK  148  A    between atoms: _357  and  _358
REMARK  149  A    between atoms: _357  and  _360
REMARK  150  A    between atoms: _360  and  _361
REMARK  151  A    between atoms: _364  and  _366
REMARK  152  A    between atoms: _366  and  _367
REMARK  153  A    between atoms: _366  and  _369
REMARK  154  A    between atoms: _369  and  _370
REMARK  155  A    between atoms: _373  and  _375
REMARK  156  A    between atoms: _375  and  _376
REMARK  157  A    between atoms: _375  and  _378
REMARK  158  A    between atoms: _378  and  _379
REMARK  159  A    between atoms: _382  and  _384
REMARK  160  A    between atoms: _384  and  _385
REMARK  161  A    between atoms: _387  and  _389
REMARK  162  A    between atoms: _389  and  _390
REMARK  163  A    between atoms: _393  and  _395
REMARK  164  A    between atoms: _395  and  _396
REMARK  165  A    between atoms: _395  and  _398
REMARK  166  A    between atoms: _398  and  _399
REMARK  167  A    between atoms: _402  and  _404
REMARK  168  A    between atoms: _404  and  _405
REMARK  169  A    between atoms: _404  and  _407
REMARK  170  A    between atoms: _407  and  _408
REMARK  171  A    between atoms: _411  and  _413
REMARK  172  A    between atoms: _413  and  _414
REMARK  173  A    between atoms: _413  and  _416
REMARK  174  A    between atoms: _416  and  _417
REMARK  175  A    between atoms: _420  and  _422
REMARK  176  A    between atoms: _422  and  _423
REMARK  177  A    between atoms: _422  and  _425
REMARK  178  A    between atoms: _428  and  _430
REMARK  179  A    between atoms: _430  and  _431
REMARK  180  A    between atoms: _430  and  _433
REMARK  181  A    between atoms: _433  and  _434
REMARK  182  A    between atoms: _434  and  _435
REMARK  183  A    between atoms: _435  and  _436
REMARK  184  A    between atoms: _436  and  _437
REMARK  185  A    between atoms: _441  and  _443
REMARK  186  A    between atoms: _443  and  _444
REMARK  187  A    between atoms: _443  and  _446
REMARK  188  A    between atoms: _446  and  _447
REMARK  189  A    between atoms: _447  and  _448
REMARK  190  A    between atoms: _450  and  _452
REMARK  191  A    between atoms: _452  and  _453
REMARK  192  A    between atoms: _452  and  _455
REMARK  193  A    between atoms: _455  and  _456
REMARK  194  A    between atoms: _459  and  _461
REMARK  195  A    between atoms: _461  and  _462
REMARK  196  A    between atoms: _464  and  _466
REMARK  197  A    between atoms: _466  and  _467
REMARK  198  A    between atoms: _469  and  _471
REMARK  199  A    between atoms: _471  and  _472
REMARK  200  A    between atoms: _471  and  _474
REMARK  201  A    between atoms: _474  and  _475
REMARK  202  A    between atoms: _478  and  _480
REMARK  203  A    between atoms: _480  and  _481
REMARK  204  A    between atoms: _483  and  _485
REMARK  205  A    between atoms: _485  and  _486
REMARK  206  A    between atoms: _488  and  _490
REMARK  207  A    between atoms: _490  and  _491
REMARK  208  A    between atoms: _490  and  _493
REMARK  209  A    between atoms: _493  and  _494
REMARK  210  A    between atoms: _500  and  _502
REMARK  211  A    between atoms: _502  and  _503
REMARK  212  A    between atoms: _502  and  _505
REMARK  213  A    between atoms: _505  and  _506
REMARK  214  A    between atoms: _509  and  _511
REMARK  215  A    between atoms: _511  and  _512
REMARK  216  A    between atoms: _511  and  _514
REMARK  217  A    between atoms: _517  and  _519
REMARK  218  A    between atoms: _519  and  _520
REMARK  219  A    between atoms: _519  and  _522
REMARK  220  A    between atoms: _522  and  _523
REMARK  221  A    between atoms: _523  and  _524
REMARK  222  A    between atoms: _529  and  _531
REMARK  223  A    between atoms: _531  and  _532
REMARK  224  A    between atoms: _531  and  _534
REMARK  225  A    between atoms: _534  and  _535
REMARK  226  A    between atoms: _539  and  _540
REMARK  227  A    between atoms: _545  and  _547
REMARK  228  A    between atoms: _547  and  _548
REMARK  229  A    between atoms: _547  and  _550
REMARK  230  A    between atoms: _550  and  _551
REMARK  231  A    between atoms: _555  and  _556
REMARK  232  A    between atoms: _561  and  _563
REMARK  233  A    between atoms: _563  and  _564
REMARK  234  A    between atoms: _563  and  _566
REMARK  235  A    between atoms: _569  and  _571
REMARK  236  A    between atoms: _571  and  _572
REMARK  237  A    between atoms: _571  and  _574
REMARK  238  A    between atoms: _574  and  _575
REMARK  239  A    between atoms: _580  and  _582
REMARK  240  A    between atoms: _582  and  _583
REMARK  241  A    between atoms: _582  and  _585
REMARK  242  A    between atoms: _585  and  _586
REMARK  243  A    between atoms: _589  and  _591
REMARK  244  A    between atoms: _591  and  _592
REMARK  245  A    between atoms: _591  and  _594
REMARK  246  A    between atoms: _594  and  _595
REMARK  247  A    between atoms: _598  and  _600
REMARK  248  A    between atoms: _600  and  _601
REMARK  249  A    between atoms: _603  and  _605
REMARK  250  A    between atoms: _605  and  _606
REMARK  251  A    between atoms: _605  and  _608
REMARK  252  A    between atoms: _608  and  _609
REMARK  253  A    between atoms: _609  and  _610
REMARK  254  A    between atoms: _610  and  _611
REMARK                            x       y       z     vdW  Elec       q    Type
REMARK                         _______ _______ _______ _____ _____    ______ ____
ROOT
ATOM      1  O   HOH     1      -2.670 -12.483  26.981  0.00  0.00    +0.000 OA
ENDROOT
TORSDOF 0
REMARK  Name = ../refined-set-2016/2p3c/2p3c_pocket.pdb
REMARK  254 active torsions:
REMARK  status: ('A' for Active; 'I' for Inactive)
REMARK    1  A    between atoms: _1  and  _3
REMARK    2  A    between atoms: _3  and  _4
REMARK    3  A    between atoms: _3  and  _6
REMARK    4  A    between atoms: _6  and  _7
REMARK    5  A    between atoms: _7  and  _8
REMARK    6  A    between atoms: _8  and  _9
REMARK    7  A    between atoms: _9  and  _10
REMARK    8  A    between atoms: _14  and  _16
REMARK    9  A    between atoms: _16  and  _17
REMARK   10  A    between atoms: _16  and  _19
REMARK   11  A    between atoms: _19  and  _20
REMARK   12  A    between atoms: _20  and  _21
REMARK   13  A    between atoms: _21  and  _22
REMARK   14  A    between atoms: _31  and  _33
REMARK   15  A    between atoms: _33  and  _34
REMARK   16  A    between atoms: _33  and  _36
REMARK   17  A    between atoms: _36  and  _37
REMARK   18  A    between atoms: _40  and  _42
REMARK   19  A    between atoms: _42  and  _43
REMARK   20  A    between atoms: _42  and  _45
REMARK   21  A    between atoms: _45  and  _46
REMARK   22  A    between atoms: _49  and  _51
REMARK   23  A    between atoms: _51  and  _52
REMARK   24  A    between atoms: _51  and  _54
REMARK   25  A    between atoms: _54  and  _55
REMARK   26  A    between atoms: _58  and  _60
REMARK   27  A    between atoms: _60  and  _61
REMARK   28  A    between atoms: _60  and  _63
REMARK   29  A    between atoms: _63  and  _64
REMARK   30  A    between atoms: _67  and  _69
REMARK   31  A    between atoms: _69  and  _70
REMARK   32  A    between atoms: _72  and  _74
REMARK   33  A    between atoms: _74  and  _75
REMARK   34  A    between atoms: _78  and  _80
REMARK   35  A    between atoms: _80  and  _81
REMARK   36  A    between atoms: _80  and  _83
REMARK   37  A    between atoms: _83  and  _84
REMARK   38  A    between atoms: _87  and  _89
REMARK   39  A    between atoms: _89  and  _90
REMARK   40  A    between atoms: _89  and  _92
REMARK   41  A    between atoms: _92  and  _93
REMARK   42  A    between atoms: _96  and  _98
REMARK   43  A    between atoms: _98  and  _99
REMARK   44  A    between atoms: _98  and  _101
REMARK   45  A    between atoms: _101  and  _102
REMARK   46  A    between atoms: _105  and  _107
REMARK   47  A    between atoms: _107  and  _108
REMARK   48  A    between atoms: _107  and  _110
REMARK   49  A    between atoms: _113  and  _115
REMARK   50  A    between atoms: _115  and  _116
REMARK   51  A    between atoms: _115  and  _118
REMARK   52  A    between atoms: _118  and  _119
REMARK   53  A    between atoms: _119  and  _120
REMARK   54  A    between atoms: _120  and  _121
REMARK   55  A    between atoms: _121  and  _122
REMARK   56  A    between atoms: _126  and  _128
REMARK   57  A    between atoms: _128  and  _129
REMARK   58  A    between atoms: _128  and  _131
REMARK   59  A    between atoms: _131  and  _132
REMARK   60  A    between atoms: _132  and  _133
REMARK   61  A    between atoms: _135  and  _137
REMARK   62  A    between atoms: _137  and  _138
REMARK   63  A    between atoms: _137  and  _140
REMARK   64  A    between atoms: _140  and  _141
REMARK   65  A    between atoms: _144  and  _146
REMARK   66  A    between atoms: _146  and  _147
REMARK   67  A    between atoms: _149  and  _151
REMARK   68  A    between atoms: _151  and  _152
REMARK   69  A    between atoms: _154  and  _156
REMARK   70  A    between atoms: _156  and  _157
REMARK   71  A    between atoms: _156  and  _159
REMARK   72  A    between atoms: _159  and  _160
REMARK   73  A    between atoms: _163  and  _165
REMARK   74  A    between atoms: _165  and  _166
REMARK   75  A    between atoms: _168  and  _170
REMARK   76  A    between atoms: _170  and  _171
REMARK   77  A    between atoms: _173  and  _175
REMARK   78  A    between atoms: _175  and  _176
REMARK   79  A    between atoms: _175  and  _178
REMARK   80  A    between atoms: _178  and  _179
REMARK   81  A    between atoms: _185  and  _187
REMARK   82  A    between atoms: _187  and  _188
REMARK   83  A    between atoms: _187  and  _190
REMARK   84  A    between atoms: _190  and  _191
REMARK   85  A    between atoms: _194  and  _196
REMARK   86  A    between atoms: _196  and  _197
REMARK   87  A    between atoms: _196  and  _199
REMARK   88  A    between atoms: _202  and  _204
REMARK   89  A    between atoms: _204  and  _205
REMARK   90  A    between atoms: _204  and  _207
REMARK   91  A    between atoms: _207  and  _208
REMARK   92  A    between atoms: _208  and  _209
REMARK   93  A    between atoms: _214  and  _216
REMARK   94  A    between atoms: _216  and  _217
REMARK   95  A    between atoms: _216  and  _219
REMARK   96  A    between atoms: _219  and  _220
REMARK   97  A    between atoms: _224  and  _225
REMARK   98  A    between atoms: _230  and  _232
REMARK   99  A    between atoms: _232  and  _233
REMARK  100  A    between atoms: _232  and  _235
REMARK  101  A    between atoms: _235  and  _236
REMARK  102  A    between atoms: _240  and  _241
REMARK  103  A    between atoms: _246  and  _248
REMARK  104  A    between atoms: _248  and  _249
REMARK  105  A    between atoms: _248  and  _251
REMARK  106  A    between atoms: _254  and  _256
REMARK  107  A    between atoms: _256  and  _257
REMARK  108  A    between atoms: _256  and  _259
REMARK  109  A    between atoms: _259  and  _260
REMARK  110  A    between atoms: _265  and  _267
REMARK  111  A    between atoms: _267  and  _268
REMARK  112  A    between atoms: _267  and  _270
REMARK  113  A    between atoms: _270  and  _271
REMARK  114  A    between atoms: _274  and  _276
REMARK  115  A    between atoms: _276  and  _277
REMARK  116  A    between atoms: _276  and  _279
REMARK  117  A    between atoms: _279  and  _280
REMARK  118  A    between atoms: _283  and  _285
REMARK  119  A    between atoms: _285  and  _286
REMARK  120  A    between atoms: _288  and  _290
REMARK  121  A    between atoms: _290  and  _291
REMARK  122  A    between atoms: _290  and  _293
REMARK  123  A    between atoms: _293  and  _294
REMARK  124  A    between atoms: _294  and  _295
REMARK  125  A    between atoms: _295  and  _296
REMARK  126  A    between atoms: _305  and  _307
REMARK  127  A    between atoms: _307  and  _308
REMARK  128  A    between atoms: _307  and  _310
REMARK  129  A    between atoms: _310  and  _311
REMARK  130  A    between atoms: _316  and  _318
REMARK  131  A    between atoms: _318  and  _319
REMARK  132  A    between atoms: _318  and  _321
REMARK  133  A    between atoms: _321  and  _322
REMARK  134  A    between atoms: _322  and  _323
REMARK  135  A    between atoms: _323  and  _324
REMARK  136  A    between atoms: _324  and  _325
REMARK  137  A    between atoms: _329  and  _331
REMARK  138  A    between atoms: _331  and  _332
REMARK  139  A    between atoms: _331  and  _334
REMARK  140  A    between atoms: _334  and  _335
REMARK  141  A    between atoms: _335  and  _336
REMARK  142  A    between atoms: _336  and  _337
REMARK  143  A    between atoms: _346  and  _348
REMARK  144  A    between atoms: _348  and  _349
REMARK  145  A    between atoms: _348  and  _351
REMARK  146  A    between atoms: _351  and  _352
REMARK  147  A    between atoms: _355  and  _357
REMARK  148  A    between atoms: _357  and  _358
REMARK  149  A    between atoms: _357  and  _360
REMARK  150  A    between atoms: _360  and  _361
REMARK  151  A    between atoms: _364  and  _366
REMARK  152  A    between atoms: _366  and  _367
REMARK  153  A    between atoms: _366  and  _369
REMARK  154  A    between atoms: _369  and  _370
REMARK  155  A    between atoms: _373  and  _375
REMARK  156  A    between atoms: _375  and  _376
REMARK  157  A    between atoms: _375  and  _378
REMARK  158  A    between atoms: _378  and  _379
REMARK  159  A    between atoms: _382  and  _384
REMARK  160  A    between atoms: _384  and  _385
REMARK  161  A    between atoms: _387  and  _389
REMARK  162  A    between atoms: _389  and  _390
REMARK  163  A    between atoms: _393  and  _395
REMARK  164  A    between atoms: _395  and  _396
REMARK  165  A    between atoms: _395  and  _398
REMARK  166  A    between atoms: _398  and  _399
REMARK  167  A    between atoms: _402  and  _404
REMARK  168  A    between atoms: _404  and  _405
REMARK  169  A    between atoms: _404  and  _407
REMARK  170  A    between atoms: _407  and  _408
REMARK  171  A    between atoms: _411  and  _413
REMARK  172  A    between atoms: _413  and  _414
REMARK  173  A    between atoms: _413  and  _416
REMARK  174  A    between atoms: _416  and  _417
REMARK  175  A    between atoms: _420  and  _422
REMARK  176  A    between atoms: _422  and  _423
REMARK  177  A    between atoms: _422  and  _425
REMARK  178  A    between atoms: _428  and  _430
REMARK  179  A    between atoms: _430  and  _431
REMARK  180  A    between atoms: _430  and  _433
REMARK  181  A    between atoms: _433  and  _434
REMARK  182  A    between atoms: _434  and  _435
REMARK  183  A    between atoms: _435  and  _436
REMARK  184  A    between atoms: _436  and  _437
REMARK  185  A    between atoms: _441  and  _443
REMARK  186  A    between atoms: _443  and  _444
REMARK  187  A    between atoms: _443  and  _446
REMARK  188  A    between atoms: _446  and  _447
REMARK  189  A    between atoms: _447  and  _448
REMARK  190  A    between atoms: _450  and  _452
REMARK  191  A    between atoms: _452  and  _453
REMARK  192  A    between atoms: _452  and  _455
REMARK  193  A    between atoms: _455  and  _456
REMARK  194  A    between atoms: _459  and  _461
REMARK  195  A    between atoms: _461  and  _462
REMARK  196  A    between atoms: _464  and  _466
REMARK  197  A    between atoms: _466  and  _467
REMARK  198  A    between atoms: _469  and  _471
REMARK  199  A    between atoms: _471  and  _472
REMARK  200  A    between atoms: _471  and  _474
REMARK  201  A    between atoms: _474  and  _475
REMARK  202  A    between atoms: _478  and  _480
REMARK  203  A    between atoms: _480  and  _481
REMARK  204  A    between atoms: _483  and  _485
REMARK  205  A    between atoms: _485  and  _486
REMARK  206  A    between atoms: _488  and  _490
REMARK  207  A    between atoms: _490  and  _491
REMARK  208  A    between atoms: _490  and  _493
REMARK  209  A    between atoms: _493  and  _494
REMARK  210  A    between atoms: _500  and  _502
REMARK  211  A    between atoms: _502  and  _503
REMARK  212  A    between atoms: _502  and  _505
REMARK  213  A    between atoms: _505  and  _506
REMARK  214  A    between atoms: _509  and  _511
REMARK  215  A    between atoms: _511  and  _512
REMARK  216  A    between atoms: _511  and  _514
REMARK  217  A    between atoms: _517  and  _519
REMARK  218  A    between atoms: _519  and  _520
REMARK  219  A    between atoms: _519  and  _522
REMARK  220  A    between atoms: _522  and  _523
REMARK  221  A    between atoms: _523  and  _524
REMARK  222  A    between atoms: _529  and  _531
REMARK  223  A    between atoms: _531  and  _532
REMARK  224  A    between atoms: _531  and  _534
REMARK  225  A    between atoms: _534  and  _535
REMARK  226  A    between atoms: _539  and  _540
REMARK  227  A    between atoms: _545  and  _547
REMARK  228  A    between atoms: _547  and  _548
REMARK  229  A    between atoms: _547  and  _550
REMARK  230  A    between atoms: _550  and  _551
REMARK  231  A    between atoms: _555  and  _556
REMARK  232  A    between atoms: _561  and  _563
REMARK  233  A    between atoms: _563  and  _564
REMARK  234  A    between atoms: _563  and  _566
REMARK  235  A    between atoms: _569  and  _571
REMARK  236  A    between atoms: _571  and  _572
REMARK  237  A    between atoms: _571  and  _574
REMARK  238  A    between atoms: _574  and  _575
REMARK  239  A    between atoms: _580  and  _582
REMARK  240  A    between atoms: _582  and  _583
REMARK  241  A    between atoms: _582  and  _585
REMARK  242  A    between atoms: _585  and  _586
REMARK  243  A    between atoms: _589  and  _591
REMARK  244  A    between atoms: _591  and  _592
REMARK  245  A    between atoms: _591  and  _594
REMARK  246  A    between atoms: _594  and  _595
REMARK  247  A    between atoms: _598  and  _600
REMARK  248  A    between atoms: _600  and  _601
REMARK  249  A    between atoms: _603  and  _605
REMARK  250  A    between atoms: _605  and  _606
REMARK  251  A    between atoms: _605  and  _608
REMARK  252  A    between atoms: _608  and  _609
REMARK  253  A    between atoms: _609  and  _610
REMARK  254  A    between atoms: _610  and  _611
REMARK                            x       y       z     vdW  Elec       q    Type
REMARK                         _______ _______ _______ _____ _____    ______ ____
ROOT
ATOM      1  O   HOH     1     -16.245 -13.558  10.303  0.00  0.00    +0.000 OA
ENDROOT
TORSDOF 0
REMARK  Name = ../refined-set-2016/2p3c/2p3c_pocket.pdb
REMARK  254 active torsions:
REMARK  status: ('A' for Active; 'I' for Inactive)
REMARK    1  A    between atoms: _1  and  _3
REMARK    2  A    between atoms: _3  and  _4
REMARK    3  A    between atoms: _3  and  _6
REMARK    4  A    between atoms: _6  and  _7
REMARK    5  A    between atoms: _7  and  _8
REMARK    6  A    between atoms: _8  and  _9
REMARK    7  A    between atoms: _9  and  _10
REMARK    8  A    between atoms: _14  and  _16
REMARK    9  A    between atoms: _16  and  _17
REMARK   10  A    between atoms: _16  and  _19
REMARK   11  A    between atoms: _19  and  _20
REMARK   12  A    between atoms: _20  and  _21
REMARK   13  A    between atoms: _21  and  _22
REMARK   14  A    between atoms: _31  and  _33
REMARK   15  A    between atoms: _33  and  _34
REMARK   16  A    between atoms: _33  and  _36
REMARK   17  A    between atoms: _36  and  _37
REMARK   18  A    between atoms: _40  and  _42
REMARK   19  A    between atoms: _42  and  _43
REMARK   20  A    between atoms: _42  and  _45
REMARK   21  A    between atoms: _45  and  _46
REMARK   22  A    between atoms: _49  and  _51
REMARK   23  A    between atoms: _51  and  _52
REMARK   24  A    between atoms: _51  and  _54
REMARK   25  A    between atoms: _54  and  _55
REMARK   26  A    between atoms: _58  and  _60
REMARK   27  A    between atoms: _60  and  _61
REMARK   28  A    between atoms: _60  and  _63
REMARK   29  A    between atoms: _63  and  _64
REMARK   30  A    between atoms: _67  and  _69
REMARK   31  A    between atoms: _69  and  _70
REMARK   32  A    between atoms: _72  and  _74
REMARK   33  A    between atoms: _74  and  _75
REMARK   34  A    between atoms: _78  and  _80
REMARK   35  A    between atoms: _80  and  _81
REMARK   36  A    between atoms: _80  and  _83
REMARK   37  A    between atoms: _83  and  _84
REMARK   38  A    between atoms: _87  and  _89
REMARK   39  A    between atoms: _89  and  _90
REMARK   40  A    between atoms: _89  and  _92
REMARK   41  A    between atoms: _92  and  _93
REMARK   42  A    between atoms: _96  and  _98
REMARK   43  A    between atoms: _98  and  _99
REMARK   44  A    between atoms: _98  and  _101
REMARK   45  A    between atoms: _101  and  _102
REMARK   46  A    between atoms: _105  and  _107
REMARK   47  A    between atoms: _107  and  _108
REMARK   48  A    between atoms: _107  and  _110
REMARK   49  A    between atoms: _113  and  _115
REMARK   50  A    between atoms: _115  and  _116
REMARK   51  A    between atoms: _115  and  _118
REMARK   52  A    between atoms: _118  and  _119
REMARK   53  A    between atoms: _119  and  _120
REMARK   54  A    between atoms: _120  and  _121
REMARK   55  A    between atoms: _121  and  _122
REMARK   56  A    between atoms: _126  and  _128
REMARK   57  A    between atoms: _128  and  _129
REMARK   58  A    between atoms: _128  and  _131
REMARK   59  A    between atoms: _131  and  _132
REMARK   60  A    between atoms: _132  and  _133
REMARK   61  A    between atoms: _135  and  _137
REMARK   62  A    between atoms: _137  and  _138
REMARK   63  A    between atoms: _137  and  _140
REMARK   64  A    between atoms: _140  and  _141
REMARK   65  A    between atoms: _144  and  _146
REMARK   66  A    between atoms: _146  and  _147
REMARK   67  A    between atoms: _149  and  _151
REMARK   68  A    between atoms: _151  and  _152
REMARK   69  A    between atoms: _154  and  _156
REMARK   70  A    between atoms: _156  and  _157
REMARK   71  A    between atoms: _156  and  _159
REMARK   72  A    between atoms: _159  and  _160
REMARK   73  A    between atoms: _163  and  _165
REMARK   74  A    between atoms: _165  and  _166
REMARK   75  A    between atoms: _168  and  _170
REMARK   76  A    between atoms: _170  and  _171
REMARK   77  A    between atoms: _173  and  _175
REMARK   78  A    between atoms: _175  and  _176
REMARK   79  A    between atoms: _175  and  _178
REMARK   80  A    between atoms: _178  and  _179
REMARK   81  A    between atoms: _185  and  _187
REMARK   82  A    between atoms: _187  and  _188
REMARK   83  A    between atoms: _187  and  _190
REMARK   84  A    between atoms: _190  and  _191
REMARK   85  A    between atoms: _194  and  _196
REMARK   86  A    between atoms: _196  and  _197
REMARK   87  A    between atoms: _196  and  _199
REMARK   88  A    between atoms: _202  and  _204
REMARK   89  A    between atoms: _204  and  _205
REMARK   90  A    between atoms: _204  and  _207
REMARK   91  A    between atoms: _207  and  _208
REMARK   92  A    between atoms: _208  and  _209
REMARK   93  A    between atoms: _214  and  _216
REMARK   94  A    between atoms: _216  and  _217
REMARK   95  A    between atoms: _216  and  _219
REMARK   96  A    between atoms: _219  and  _220
REMARK   97  A    between atoms: _224  and  _225
REMARK   98  A    between atoms: _230  and  _232
REMARK   99  A    between atoms: _232  and  _233
REMARK  100  A    between atoms: _232  and  _235
REMARK  101  A    between atoms: _235  and  _236
REMARK  102  A    between atoms: _240  and  _241
REMARK  103  A    between atoms: _246  and  _248
REMARK  104  A    between atoms: _248  and  _249
REMARK  105  A    between atoms: _248  and  _251
REMARK  106  A    between atoms: _254  and  _256
REMARK  107  A    between atoms: _256  and  _257
REMARK  108  A    between atoms: _256  and  _259
REMARK  109  A    between atoms: _259  and  _260
REMARK  110  A    between atoms: _265  and  _267
REMARK  111  A    between atoms: _267  and  _268
REMARK  112  A    between atoms: _267  and  _270
REMARK  113  A    between atoms: _270  and  _271
REMARK  114  A    between atoms: _274  and  _276
REMARK  115  A    between atoms: _276  and  _277
REMARK  116  A    between atoms: _276  and  _279
REMARK  117  A    between atoms: _279  and  _280
REMARK  118  A    between atoms: _283  and  _285
REMARK  119  A    between atoms: _285  and  _286
REMARK  120  A    between atoms: _288  and  _290
REMARK  121  A    between atoms: _290  and  _291
REMARK  122  A    between atoms: _290  and  _293
REMARK  123  A    between atoms: _293  and  _294
REMARK  124  A    between atoms: _294  and  _295
REMARK  125  A    between atoms: _295  and  _296
REMARK  126  A    between atoms: _305  and  _307
REMARK  127  A    between atoms: _307  and  _308
REMARK  128  A    between atoms: _307  and  _310
REMARK  129  A    between atoms: _310  and  _311
REMARK  130  A    between atoms: _316  and  _318
REMARK  131  A    between atoms: _318  and  _319
REMARK  132  A    between atoms: _318  and  _321
REMARK  133  A    between atoms: _321  and  _322
REMARK  134  A    between atoms: _322  and  _323
REMARK  135  A    between atoms: _323  and  _324
REMARK  136  A    between atoms: _324  and  _325
REMARK  137  A    between atoms: _329  and  _331
REMARK  138  A    between atoms: _331  and  _332
REMARK  139  A    between atoms: _331  and  _334
REMARK  140  A    between atoms: _334  and  _335
REMARK  141  A    between atoms: _335  and  _336
REMARK  142  A    between atoms: _336  and  _337
REMARK  143  A    between atoms: _346  and  _348
REMARK  144  A    between atoms: _348  and  _349
REMARK  145  A    between atoms: _348  and  _351
REMARK  146  A    between atoms: _351  and  _352
REMARK  147  A    between atoms: _355  and  _357
REMARK  148  A    between atoms: _357  and  _358
REMARK  149  A    between atoms: _357  and  _360
REMARK  150  A    between atoms: _360  and  _361
REMARK  151  A    between atoms: _364  and  _366
REMARK  152  A    between atoms: _366  and  _367
REMARK  153  A    between atoms: _366  and  _369
REMARK  154  A    between atoms: _369  and  _370
REMARK  155  A    between atoms: _373  and  _375
REMARK  156  A    between atoms: _375  and  _376
REMARK  157  A    between atoms: _375  and  _378
REMARK  158  A    between atoms: _378  and  _379
REMARK  159  A    between atoms: _382  and  _384
REMARK  160  A    between atoms: _384  and  _385
REMARK  161  A    between atoms: _387  and  _389
REMARK  162  A    between atoms: _389  and  _390
REMARK  163  A    between atoms: _393  and  _395
REMARK  164  A    between atoms: _395  and  _396
REMARK  165  A    between atoms: _395  and  _398
REMARK  166  A    between atoms: _398  and  _399
REMARK  167  A    between atoms: _402  and  _404
REMARK  168  A    between atoms: _404  and  _405
REMARK  169  A    between atoms: _404  and  _407
REMARK  170  A    between atoms: _407  and  _408
REMARK  171  A    between atoms: _411  and  _413
REMARK  172  A    between atoms: _413  and  _414
REMARK  173  A    between atoms: _413  and  _416
REMARK  174  A    between atoms: _416  and  _417
REMARK  175  A    between atoms: _420  and  _422
REMARK  176  A    between atoms: _422  and  _423
REMARK  177  A    between atoms: _422  and  _425
REMARK  178  A    between atoms: _428  and  _430
REMARK  179  A    between atoms: _430  and  _431
REMARK  180  A    between atoms: _430  and  _433
REMARK  181  A    between atoms: _433  and  _434
REMARK  182  A    between atoms: _434  and  _435
REMARK  183  A    between atoms: _435  and  _436
REMARK  184  A    between atoms: _436  and  _437
REMARK  185  A    between atoms: _441  and  _443
REMARK  186  A    between atoms: _443  and  _444
REMARK  187  A    between atoms: _443  and  _446
REMARK  188  A    between atoms: _446  and  _447
REMARK  189  A    between atoms: _447  and  _448
REMARK  190  A    between atoms: _450  and  _452
REMARK  191  A    between atoms: _452  and  _453
REMARK  192  A    between atoms: _452  and  _455
REMARK  193  A    between atoms: _455  and  _456
REMARK  194  A    between atoms: _459  and  _461
REMARK  195  A    between atoms: _461  and  _462
REMARK  196  A    between atoms: _464  and  _466
REMARK  197  A    between atoms: _466  and  _467
REMARK  198  A    between atoms: _469  and  _471
REMARK  199  A    between atoms: _471  and  _472
REMARK  200  A    between atoms: _471  and  _474
REMARK  201  A    between atoms: _474  and  _475
REMARK  202  A    between atoms: _478  and  _480
REMARK  203  A    between atoms: _480  and  _481
REMARK  204  A    between atoms: _483  and  _485
REMARK  205  A    between atoms: _485  and  _486
REMARK  206  A    between atoms: _488  and  _490
REMARK  207  A    between atoms: _490  and  _491
REMARK  208  A    between atoms: _490  and  _493
REMARK  209  A    between atoms: _493  and  _494
REMARK  210  A    between atoms: _500  and  _502
REMARK  211  A    between atoms: _502  and  _503
REMARK  212  A    between atoms: _502  and  _505
REMARK  213  A    between atoms: _505  and  _506
REMARK  214  A    between atoms: _509  and  _511
REMARK  215  A    between atoms: _511  and  _512
REMARK  216  A    between atoms: _511  and  _514
REMARK  217  A    between atoms: _517  and  _519
REMARK  218  A    between atoms: _519  and  _520
REMARK  219  A    between atoms: _519  and  _522
REMARK  220  A    between atoms: _522  and  _523
REMARK  221  A    between atoms: _523  and  _524
REMARK  222  A    between atoms: _529  and  _531
REMARK  223  A    between atoms: _531  and  _532
REMARK  224  A    between atoms: _531  and  _534
REMARK  225  A    between atoms: _534  and  _535
REMARK  226  A    between atoms: _539  and  _540
REMARK  227  A    between atoms: _545  and  _547
REMARK  228  A    between atoms: _547  and  _548
REMARK  229  A    between atoms: _547  and  _550
REMARK  230  A    between atoms: _550  and  _551
REMARK  231  A    between atoms: _555  and  _556
REMARK  232  A    between atoms: _561  and  _563
REMARK  233  A    between atoms: _563  and  _564
REMARK  234  A    between atoms: _563  and  _566
REMARK  235  A    between atoms: _569  and  _571
REMARK  236  A    between atoms: _571  and  _572
REMARK  237  A    between atoms: _571  and  _574
REMARK  238  A    between atoms: _574  and  _575
REMARK  239  A    between atoms: _580  and  _582
REMARK  240  A    between atoms: _582  and  _583
REMARK  241  A    between atoms: _582  and  _585
REMARK  242  A    between atoms: _585  and  _586
REMARK  243  A    between atoms: _589  and  _591
REMARK  244  A    between atoms: _591  and  _592
REMARK  245  A    between atoms: _591  and  _594
REMARK  246  A    between atoms: _594  and  _595
REMARK  247  A    between atoms: _598  and  _600
REMARK  248  A    between atoms: _600  and  _601
REMARK  249  A    between atoms: _603  and  _605
REMARK  250  A    between atoms: _605  and  _606
REMARK  251  A    between atoms: _605  and  _608
REMARK  252  A    between atoms: _608  and  _609
REMARK  253  A    between atoms: _609  and  _610
REMARK  254  A    between atoms: _610  and  _611
REMARK                            x       y       z     vdW  Elec       q    Type
REMARK                         _______ _______ _______ _____ _____    ______ ____
ROOT
ATOM      1  O   HOH     1     -15.868  -9.021   7.000  0.00  0.00    +0.000 OA
ENDROOT
TORSDOF 0
REMARK  Name = ../refined-set-2016/2p3c/2p3c_pocket.pdb
REMARK  254 active torsions:
REMARK  status: ('A' for Active; 'I' for Inactive)
REMARK    1  A    between atoms: _1  and  _3
REMARK    2  A    between atoms: _3  and  _4
REMARK    3  A    between atoms: _3  and  _6
REMARK    4  A    between atoms: _6  and  _7
REMARK    5  A    between atoms: _7  and  _8
REMARK    6  A    between atoms: _8  and  _9
REMARK    7  A    between atoms: _9  and  _10
REMARK    8  A    between atoms: _14  and  _16
REMARK    9  A    between atoms: _16  and  _17
REMARK   10  A    between atoms: _16  and  _19
REMARK   11  A    between atoms: _19  and  _20
REMARK   12  A    between atoms: _20  and  _21
REMARK   13  A    between atoms: _21  and  _22
REMARK   14  A    between atoms: _31  and  _33
REMARK   15  A    between atoms: _33  and  _34
REMARK   16  A    between atoms: _33  and  _36
REMARK   17  A    between atoms: _36  and  _37
REMARK   18  A    between atoms: _40  and  _42
REMARK   19  A    between atoms: _42  and  _43
REMARK   20  A    between atoms: _42  and  _45
REMARK   21  A    between atoms: _45  and  _46
REMARK   22  A    between atoms: _49  and  _51
REMARK   23  A    between atoms: _51  and  _52
REMARK   24  A    between atoms: _51  and  _54
REMARK   25  A    between atoms: _54  and  _55
REMARK   26  A    between atoms: _58  and  _60
REMARK   27  A    between atoms: _60  and  _61
REMARK   28  A    between atoms: _60  and  _63
REMARK   29  A    between atoms: _63  and  _64
REMARK   30  A    between atoms: _67  and  _69
REMARK   31  A    between atoms: _69  and  _70
REMARK   32  A    between atoms: _72  and  _74
REMARK   33  A    between atoms: _74  and  _75
REMARK   34  A    between atoms: _78  and  _80
REMARK   35  A    between atoms: _80  and  _81
REMARK   36  A    between atoms: _80  and  _83
REMARK   37  A    between atoms: _83  and  _84
REMARK   38  A    between atoms: _87  and  _89
REMARK   39  A    between atoms: _89  and  _90
REMARK   40  A    between atoms: _89  and  _92
REMARK   41  A    between atoms: _92  and  _93
REMARK   42  A    between atoms: _96  and  _98
REMARK   43  A    between atoms: _98  and  _99
REMARK   44  A    between atoms: _98  and  _101
REMARK   45  A    between atoms: _101  and  _102
REMARK   46  A    between atoms: _105  and  _107
REMARK   47  A    between atoms: _107  and  _108
REMARK   48  A    between atoms: _107  and  _110
REMARK   49  A    between atoms: _113  and  _115
REMARK   50  A    between atoms: _115  and  _116
REMARK   51  A    between atoms: _115  and  _118
REMARK   52  A    between atoms: _118  and  _119
REMARK   53  A    between atoms: _119  and  _120
REMARK   54  A    between atoms: _120  and  _121
REMARK   55  A    between atoms: _121  and  _122
REMARK   56  A    between atoms: _126  and  _128
REMARK   57  A    between atoms: _128  and  _129
REMARK   58  A    between atoms: _128  and  _131
REMARK   59  A    between atoms: _131  and  _132
REMARK   60  A    between atoms: _132  and  _133
REMARK   61  A    between atoms: _135  and  _137
REMARK   62  A    between atoms: _137  and  _138
REMARK   63  A    between atoms: _137  and  _140
REMARK   64  A    between atoms: _140  and  _141
REMARK   65  A    between atoms: _144  and  _146
REMARK   66  A    between atoms: _146  and  _147
REMARK   67  A    between atoms: _149  and  _151
REMARK   68  A    between atoms: _151  and  _152
REMARK   69  A    between atoms: _154  and  _156
REMARK   70  A    between atoms: _156  and  _157
REMARK   71  A    between atoms: _156  and  _159
REMARK   72  A    between atoms: _159  and  _160
REMARK   73  A    between atoms: _163  and  _165
REMARK   74  A    between atoms: _165  and  _166
REMARK   75  A    between atoms: _168  and  _170
REMARK   76  A    between atoms: _170  and  _171
REMARK   77  A    between atoms: _173  and  _175
REMARK   78  A    between atoms: _175  and  _176
REMARK   79  A    between atoms: _175  and  _178
REMARK   80  A    between atoms: _178  and  _179
REMARK   81  A    between atoms: _185  and  _187
REMARK   82  A    between atoms: _187  and  _188
REMARK   83  A    between atoms: _187  and  _190
REMARK   84  A    between atoms: _190  and  _191
REMARK   85  A    between atoms: _194  and  _196
REMARK   86  A    between atoms: _196  and  _197
REMARK   87  A    between atoms: _196  and  _199
REMARK   88  A    between atoms: _202  and  _204
REMARK   89  A    between atoms: _204  and  _205
REMARK   90  A    between atoms: _204  and  _207
REMARK   91  A    between atoms: _207  and  _208
REMARK   92  A    between atoms: _208  and  _209
REMARK   93  A    between atoms: _214  and  _216
REMARK   94  A    between atoms: _216  and  _217
REMARK   95  A    between atoms: _216  and  _219
REMARK   96  A    between atoms: _219  and  _220
REMARK   97  A    between atoms: _224  and  _225
REMARK   98  A    between atoms: _230  and  _232
REMARK   99  A    between atoms: _232  and  _233
REMARK  100  A    between atoms: _232  and  _235
REMARK  101  A    between atoms: _235  and  _236
REMARK  102  A    between atoms: _240  and  _241
REMARK  103  A    between atoms: _246  and  _248
REMARK  104  A    between atoms: _248  and  _249
REMARK  105  A    between atoms: _248  and  _251
REMARK  106  A    between atoms: _254  and  _256
REMARK  107  A    between atoms: _256  and  _257
REMARK  108  A    between atoms: _256  and  _259
REMARK  109  A    between atoms: _259  and  _260
REMARK  110  A    between atoms: _265  and  _267
REMARK  111  A    between atoms: _267  and  _268
REMARK  112  A    between atoms: _267  and  _270
REMARK  113  A    between atoms: _270  and  _271
REMARK  114  A    between atoms: _274  and  _276
REMARK  115  A    between atoms: _276  and  _277
REMARK  116  A    between atoms: _276  and  _279
REMARK  117  A    between atoms: _279  and  _280
REMARK  118  A    between atoms: _283  and  _285
REMARK  119  A    between atoms: _285  and  _286
REMARK  120  A    between atoms: _288  and  _290
REMARK  121  A    between atoms: _290  and  _291
REMARK  122  A    between atoms: _290  and  _293
REMARK  123  A    between atoms: _293  and  _294
REMARK  124  A    between atoms: _294  and  _295
REMARK  125  A    between atoms: _295  and  _296
REMARK  126  A    between atoms: _305  and  _307
REMARK  127  A    between atoms: _307  and  _308
REMARK  128  A    between atoms: _307  and  _310
REMARK  129  A    between atoms: _310  and  _311
REMARK  130  A    between atoms: _316  and  _318
REMARK  131  A    between atoms: _318  and  _319
REMARK  132  A    between atoms: _318  and  _321
REMARK  133  A    between atoms: _321  and  _322
REMARK  134  A    between atoms: _322  and  _323
REMARK  135  A    between atoms: _323  and  _324
REMARK  136  A    between atoms: _324  and  _325
REMARK  137  A    between atoms: _329  and  _331
REMARK  138  A    between atoms: _331  and  _332
REMARK  139  A    between atoms: _331  and  _334
REMARK  140  A    between atoms: _334  and  _335
REMARK  141  A    between atoms: _335  and  _336
REMARK  142  A    between atoms: _336  and  _337
REMARK  143  A    between atoms: _346  and  _348
REMARK  144  A    between atoms: _348  and  _349
REMARK  145  A    between atoms: _348  and  _351
REMARK  146  A    between atoms: _351  and  _352
REMARK  147  A    between atoms: _355  and  _357
REMARK  148  A    between atoms: _357  and  _358
REMARK  149  A    between atoms: _357  and  _360
REMARK  150  A    between atoms: _360  and  _361
REMARK  151  A    between atoms: _364  and  _366
REMARK  152  A    between atoms: _366  and  _367
REMARK  153  A    between atoms: _366  and  _369
REMARK  154  A    between atoms: _369  and  _370
REMARK  155  A    between atoms: _373  and  _375
REMARK  156  A    between atoms: _375  and  _376
REMARK  157  A    between atoms: _375  and  _378
REMARK  158  A    between atoms: _378  and  _379
REMARK  159  A    between atoms: _382  and  _384
REMARK  160  A    between atoms: _384  and  _385
REMARK  161  A    between atoms: _387  and  _389
REMARK  162  A    between atoms: _389  and  _390
REMARK  163  A    between atoms: _393  and  _395
REMARK  164  A    between atoms: _395  and  _396
REMARK  165  A    between atoms: _395  and  _398
REMARK  166  A    between atoms: _398  and  _399
REMARK  167  A    between atoms: _402  and  _404
REMARK  168  A    between atoms: _404  and  _405
REMARK  169  A    between atoms: _404  and  _407
REMARK  170  A    between atoms: _407  and  _408
REMARK  171  A    between atoms: _411  and  _413
REMARK  172  A    between atoms: _413  and  _414
REMARK  173  A    between atoms: _413  and  _416
REMARK  174  A    between atoms: _416  and  _417
REMARK  175  A    between atoms: _420  and  _422
REMARK  176  A    between atoms: _422  and  _423
REMARK  177  A    between atoms: _422  and  _425
REMARK  178  A    between atoms: _428  and  _430
REMARK  179  A    between atoms: _430  and  _431
REMARK  180  A    between atoms: _430  and  _433
REMARK  181  A    between atoms: _433  and  _434
REMARK  182  A    between atoms: _434  and  _435
REMARK  183  A    between atoms: _435  and  _436
REMARK  184  A    between atoms: _436  and  _437
REMARK  185  A    between atoms: _441  and  _443
REMARK  186  A    between atoms: _443  and  _444
REMARK  187  A    between atoms: _443  and  _446
REMARK  188  A    between atoms: _446  and  _447
REMARK  189  A    between atoms: _447  and  _448
REMARK  190  A    between atoms: _450  and  _452
REMARK  191  A    between atoms: _452  and  _453
REMARK  192  A    between atoms: _452  and  _455
REMARK  193  A    between atoms: _455  and  _456
REMARK  194  A    between atoms: _459  and  _461
REMARK  195  A    between atoms: _461  and  _462
REMARK  196  A    between atoms: _464  and  _466
REMARK  197  A    between atoms: _466  and  _467
REMARK  198  A    between atoms: _469  and  _471
REMARK  199  A    between atoms: _471  and  _472
REMARK  200  A    between atoms: _471  and  _474
REMARK  201  A    between atoms: _474  and  _475
REMARK  202  A    between atoms: _478  and  _480
REMARK  203  A    between atoms: _480  and  _481
REMARK  204  A    between atoms: _483  and  _485
REMARK  205  A    between atoms: _485  and  _486
REMARK  206  A    between atoms: _488  and  _490
REMARK  207  A    between atoms: _490  and  _491
REMARK  208  A    between atoms: _490  and  _493
REMARK  209  A    between atoms: _493  and  _494
REMARK  210  A    between atoms: _500  and  _502
REMARK  211  A    between atoms: _502  and  _503
REMARK  212  A    between atoms: _502  and  _505
REMARK  213  A    between atoms: _505  and  _506
REMARK  214  A    between atoms: _509  and  _511
REMARK  215  A    between atoms: _511  and  _512
REMARK  216  A    between atoms: _511  and  _514
REMARK  217  A    between atoms: _517  and  _519
REMARK  218  A    between atoms: _519  and  _520
REMARK  219  A    between atoms: _519  and  _522
REMARK  220  A    between atoms: _522  and  _523
REMARK  221  A    between atoms: _523  and  _524
REMARK  222  A    between atoms: _529  and  _531
REMARK  223  A    between atoms: _531  and  _532
REMARK  224  A    between atoms: _531  and  _534
REMARK  225  A    between atoms: _534  and  _535
REMARK  226  A    between atoms: _539  and  _540
REMARK  227  A    between atoms: _545  and  _547
REMARK  228  A    between atoms: _547  and  _548
REMARK  229  A    between atoms: _547  and  _550
REMARK  230  A    between atoms: _550  and  _551
REMARK  231  A    between atoms: _555  and  _556
REMARK  232  A    between atoms: _561  and  _563
REMARK  233  A    between atoms: _563  and  _564
REMARK  234  A    between atoms: _563  and  _566
REMARK  235  A    between atoms: _569  and  _571
REMARK  236  A    between atoms: _571  and  _572
REMARK  237  A    between atoms: _571  and  _574
REMARK  238  A    between atoms: _574  and  _575
REMARK  239  A    between atoms: _580  and  _582
REMARK  240  A    between atoms: _582  and  _583
REMARK  241  A    between atoms: _582  and  _585
REMARK  242  A    between atoms: _585  and  _586
REMARK  243  A    between atoms: _589  and  _591
REMARK  244  A    between atoms: _591  and  _592
REMARK  245  A    between atoms: _591  and  _594
REMARK  246  A    between atoms: _594  and  _595
REMARK  247  A    between atoms: _598  and  _600
REMARK  248  A    between atoms: _600  and  _601
REMARK  249  A    between atoms: _603  and  _605
REMARK  250  A    between atoms: _605  and  _606
REMARK  251  A    between atoms: _605  and  _608
REMARK  252  A    between atoms: _608  and  _609
REMARK  253  A    between atoms: _609  and  _610
REMARK  254  A    between atoms: _610  and  _611
REMARK                            x       y       z     vdW  Elec       q    Type
REMARK                         _______ _______ _______ _____ _____    ______ ____
ROOT
ATOM      1  O   HOH     1     -16.529 -10.539   9.594  0.00  0.00    +0.000 OA
ENDROOT
TORSDOF 0
REMARK  Name = ../refined-set-2016/2p3c/2p3c_pocket.pdb
REMARK  254 active torsions:
REMARK  status: ('A' for Active; 'I' for Inactive)
REMARK    1  A    between atoms: _1  and  _3
REMARK    2  A    between atoms: _3  and  _4
REMARK    3  A    between atoms: _3  and  _6
REMARK    4  A    between atoms: _6  and  _7
REMARK    5  A    between atoms: _7  and  _8
REMARK    6  A    between atoms: _8  and  _9
REMARK    7  A    between atoms: _9  and  _10
REMARK    8  A    between atoms: _14  and  _16
REMARK    9  A    between atoms: _16  and  _17
REMARK   10  A    between atoms: _16  and  _19
REMARK   11  A    between atoms: _19  and  _20
REMARK   12  A    between atoms: _20  and  _21
REMARK   13  A    between atoms: _21  and  _22
REMARK   14  A    between atoms: _31  and  _33
REMARK   15  A    between atoms: _33  and  _34
REMARK   16  A    between atoms: _33  and  _36
REMARK   17  A    between atoms: _36  and  _37
REMARK   18  A    between atoms: _40  and  _42
REMARK   19  A    between atoms: _42  and  _43
REMARK   20  A    between atoms: _42  and  _45
REMARK   21  A    between atoms: _45  and  _46
REMARK   22  A    between atoms: _49  and  _51
REMARK   23  A    between atoms: _51  and  _52
REMARK   24  A    between atoms: _51  and  _54
REMARK   25  A    between atoms: _54  and  _55
REMARK   26  A    between atoms: _58  and  _60
REMARK   27  A    between atoms: _60  and  _61
REMARK   28  A    between atoms: _60  and  _63
REMARK   29  A    between atoms: _63  and  _64
REMARK   30  A    between atoms: _67  and  _69
REMARK   31  A    between atoms: _69  and  _70
REMARK   32  A    between atoms: _72  and  _74
REMARK   33  A    between atoms: _74  and  _75
REMARK   34  A    between atoms: _78  and  _80
REMARK   35  A    between atoms: _80  and  _81
REMARK   36  A    between atoms: _80  and  _83
REMARK   37  A    between atoms: _83  and  _84
REMARK   38  A    between atoms: _87  and  _89
REMARK   39  A    between atoms: _89  and  _90
REMARK   40  A    between atoms: _89  and  _92
REMARK   41  A    between atoms: _92  and  _93
REMARK   42  A    between atoms: _96  and  _98
REMARK   43  A    between atoms: _98  and  _99
REMARK   44  A    between atoms: _98  and  _101
REMARK   45  A    between atoms: _101  and  _102
REMARK   46  A    between atoms: _105  and  _107
REMARK   47  A    between atoms: _107  and  _108
REMARK   48  A    between atoms: _107  and  _110
REMARK   49  A    between atoms: _113  and  _115
REMARK   50  A    between atoms: _115  and  _116
REMARK   51  A    between atoms: _115  and  _118
REMARK   52  A    between atoms: _118  and  _119
REMARK   53  A    between atoms: _119  and  _120
REMARK   54  A    between atoms: _120  and  _121
REMARK   55  A    between atoms: _121  and  _122
REMARK   56  A    between atoms: _126  and  _128
REMARK   57  A    between atoms: _128  and  _129
REMARK   58  A    between atoms: _128  and  _131
REMARK   59  A    between atoms: _131  and  _132
REMARK   60  A    between atoms: _132  and  _133
REMARK   61  A    between atoms: _135  and  _137
REMARK   62  A    between atoms: _137  and  _138
REMARK   63  A    between atoms: _137  and  _140
REMARK   64  A    between atoms: _140  and  _141
REMARK   65  A    between atoms: _144  and  _146
REMARK   66  A    between atoms: _146  and  _147
REMARK   67  A    between atoms: _149  and  _151
REMARK   68  A    between atoms: _151  and  _152
REMARK   69  A    between atoms: _154  and  _156
REMARK   70  A    between atoms: _156  and  _157
REMARK   71  A    between atoms: _156  and  _159
REMARK   72  A    between atoms: _159  and  _160
REMARK   73  A    between atoms: _163  and  _165
REMARK   74  A    between atoms: _165  and  _166
REMARK   75  A    between atoms: _168  and  _170
REMARK   76  A    between atoms: _170  and  _171
REMARK   77  A    between atoms: _173  and  _175
REMARK   78  A    between atoms: _175  and  _176
REMARK   79  A    between atoms: _175  and  _178
REMARK   80  A    between atoms: _178  and  _179
REMARK   81  A    between atoms: _185  and  _187
REMARK   82  A    between atoms: _187  and  _188
REMARK   83  A    between atoms: _187  and  _190
REMARK   84  A    between atoms: _190  and  _191
REMARK   85  A    between atoms: _194  and  _196
REMARK   86  A    between atoms: _196  and  _197
REMARK   87  A    between atoms: _196  and  _199
REMARK   88  A    between atoms: _202  and  _204
REMARK   89  A    between atoms: _204  and  _205
REMARK   90  A    between atoms: _204  and  _207
REMARK   91  A    between atoms: _207  and  _208
REMARK   92  A    between atoms: _208  and  _209
REMARK   93  A    between atoms: _214  and  _216
REMARK   94  A    between atoms: _216  and  _217
REMARK   95  A    between atoms: _216  and  _219
REMARK   96  A    between atoms: _219  and  _220
REMARK   97  A    between atoms: _224  and  _225
REMARK   98  A    between atoms: _230  and  _232
REMARK   99  A    between atoms: _232  and  _233
REMARK  100  A    between atoms: _232  and  _235
REMARK  101  A    between atoms: _235  and  _236
REMARK  102  A    between atoms: _240  and  _241
REMARK  103  A    between atoms: _246  and  _248
REMARK  104  A    between atoms: _248  and  _249
REMARK  105  A    between atoms: _248  and  _251
REMARK  106  A    between atoms: _254  and  _256
REMARK  107  A    between atoms: _256  and  _257
REMARK  108  A    between atoms: _256  and  _259
REMARK  109  A    between atoms: _259  and  _260
REMARK  110  A    between atoms: _265  and  _267
REMARK  111  A    between atoms: _267  and  _268
REMARK  112  A    between atoms: _267  and  _270
REMARK  113  A    between atoms: _270  and  _271
REMARK  114  A    between atoms: _274  and  _276
REMARK  115  A    between atoms: _276  and  _277
REMARK  116  A    between atoms: _276  and  _279
REMARK  117  A    between atoms: _279  and  _280
REMARK  118  A    between atoms: _283  and  _285
REMARK  119  A    between atoms: _285  and  _286
REMARK  120  A    between atoms: _288  and  _290
REMARK  121  A    between atoms: _290  and  _291
REMARK  122  A    between atoms: _290  and  _293
REMARK  123  A    between atoms: _293  and  _294
REMARK  124  A    between atoms: _294  and  _295
REMARK  125  A    between atoms: _295  and  _296
REMARK  126  A    between atoms: _305  and  _307
REMARK  127  A    between atoms: _307  and  _308
REMARK  128  A    between atoms: _307  and  _310
REMARK  129  A    between atoms: _310  and  _311
REMARK  130  A    between atoms: _316  and  _318
REMARK  131  A    between atoms: _318  and  _319
REMARK  132  A    between atoms: _318  and  _321
REMARK  133  A    between atoms: _321  and  _322
REMARK  134  A    between atoms: _322  and  _323
REMARK  135  A    between atoms: _323  and  _324
REMARK  136  A    between atoms: _324  and  _325
REMARK  137  A    between atoms: _329  and  _331
REMARK  138  A    between atoms: _331  and  _332
REMARK  139  A    between atoms: _331  and  _334
REMARK  140  A    between atoms: _334  and  _335
REMARK  141  A    between atoms: _335  and  _336
REMARK  142  A    between atoms: _336  and  _337
REMARK  143  A    between atoms: _346  and  _348
REMARK  144  A    between atoms: _348  and  _349
REMARK  145  A    between atoms: _348  and  _351
REMARK  146  A    between atoms: _351  and  _352
REMARK  147  A    between atoms: _355  and  _357
REMARK  148  A    between atoms: _357  and  _358
REMARK  149  A    between atoms: _357  and  _360
REMARK  150  A    between atoms: _360  and  _361
REMARK  151  A    between atoms: _364  and  _366
REMARK  152  A    between atoms: _366  and  _367
REMARK  153  A    between atoms: _366  and  _369
REMARK  154  A    between atoms: _369  and  _370
REMARK  155  A    between atoms: _373  and  _375
REMARK  156  A    between atoms: _375  and  _376
REMARK  157  A    between atoms: _375  and  _378
REMARK  158  A    between atoms: _378  and  _379
REMARK  159  A    between atoms: _382  and  _384
REMARK  160  A    between atoms: _384  and  _385
REMARK  161  A    between atoms: _387  and  _389
REMARK  162  A    between atoms: _389  and  _390
REMARK  163  A    between atoms: _393  and  _395
REMARK  164  A    between atoms: _395  and  _396
REMARK  165  A    between atoms: _395  and  _398
REMARK  166  A    between atoms: _398  and  _399
REMARK  167  A    between atoms: _402  and  _404
REMARK  168  A    between atoms: _404  and  _405
REMARK  169  A    between atoms: _404  and  _407
REMARK  170  A    between atoms: _407  and  _408
REMARK  171  A    between atoms: _411  and  _413
REMARK  172  A    between atoms: _413  and  _414
REMARK  173  A    between atoms: _413  and  _416
REMARK  174  A    between atoms: _416  and  _417
REMARK  175  A    between atoms: _420  and  _422
REMARK  176  A    between atoms: _422  and  _423
REMARK  177  A    between atoms: _422  and  _425
REMARK  178  A    between atoms: _428  and  _430
REMARK  179  A    between atoms: _430  and  _431
REMARK  180  A    between atoms: _430  and  _433
REMARK  181  A    between atoms: _433  and  _434
REMARK  182  A    between atoms: _434  and  _435
REMARK  183  A    between atoms: _435  and  _436
REMARK  184  A    between atoms: _436  and  _437
REMARK  185  A    between atoms: _441  and  _443
REMARK  186  A    between atoms: _443  and  _444
REMARK  187  A    between atoms: _443  and  _446
REMARK  188  A    between atoms: _446  and  _447
REMARK  189  A    between atoms: _447  and  _448
REMARK  190  A    between atoms: _450  and  _452
REMARK  191  A    between atoms: _452  and  _453
REMARK  192  A    between atoms: _452  and  _455
REMARK  193  A    between atoms: _455  and  _456
REMARK  194  A    between atoms: _459  and  _461
REMARK  195  A    between atoms: _461  and  _462
REMARK  196  A    between atoms: _464  and  _466
REMARK  197  A    between atoms: _466  and  _467
REMARK  198  A    between atoms: _469  and  _471
REMARK  199  A    between atoms: _471  and  _472
REMARK  200  A    between atoms: _471  and  _474
REMARK  201  A    between atoms: _474  and  _475
REMARK  202  A    between atoms: _478  and  _480
REMARK  203  A    between atoms: _480  and  _481
REMARK  204  A    between atoms: _483  and  _485
REMARK  205  A    between atoms: _485  and  _486
REMARK  206  A    between atoms: _488  and  _490
REMARK  207  A    between atoms: _490  and  _491
REMARK  208  A    between atoms: _490  and  _493
REMARK  209  A    between atoms: _493  and  _494
REMARK  210  A    between atoms: _500  and  _502
REMARK  211  A    between atoms: _502  and  _503
REMARK  212  A    between atoms: _502  and  _505
REMARK  213  A    between atoms: _505  and  _506
REMARK  214  A    between atoms: _509  and  _511
REMARK  215  A    between atoms: _511  and  _512
REMARK  216  A    between atoms: _511  and  _514
REMARK  217  A    between atoms: _517  and  _519
REMARK  218  A    between atoms: _519  and  _520
REMARK  219  A    between atoms: _519  and  _522
REMARK  220  A    between atoms: _522  and  _523
REMARK  221  A    between atoms: _523  and  _524
REMARK  222  A    between atoms: _529  and  _531
REMARK  223  A    between atoms: _531  and  _532
REMARK  224  A    between atoms: _531  and  _534
REMARK  225  A    between atoms: _534  and  _535
REMARK  226  A    between atoms: _539  and  _540
REMARK  227  A    between atoms: _545  and  _547
REMARK  228  A    between atoms: _547  and  _548
REMARK  229  A    between atoms: _547  and  _550
REMARK  230  A    between atoms: _550  and  _551
REMARK  231  A    between atoms: _555  and  _556
REMARK  232  A    between atoms: _561  and  _563
REMARK  233  A    between atoms: _563  and  _564
REMARK  234  A    between atoms: _563  and  _566
REMARK  235  A    between atoms: _569  and  _571
REMARK  236  A    between atoms: _571  and  _572
REMARK  237  A    between atoms: _571  and  _574
REMARK  238  A    between atoms: _574  and  _575
REMARK  239  A    between atoms: _580  and  _582
REMARK  240  A    between atoms: _582  and  _583
REMARK  241  A    between atoms: _582  and  _585
REMARK  242  A    between atoms: _585  and  _586
REMARK  243  A    between atoms: _589  and  _591
REMARK  244  A    between atoms: _591  and  _592
REMARK  245  A    between atoms: _591  and  _594
REMARK  246  A    between atoms: _594  and  _595
REMARK  247  A    between atoms: _598  and  _600
REMARK  248  A    between atoms: _600  and  _601
REMARK  249  A    between atoms: _603  and  _605
REMARK  250  A    between atoms: _605  and  _606
REMARK  251  A    between atoms: _605  and  _608
REMARK  252  A    between atoms: _608  and  _609
REMARK  253  A    between atoms: _609  and  _610
REMARK  254  A    between atoms: _610  and  _611
REMARK                            x       y       z     vdW  Elec       q    Type
REMARK                         _______ _______ _______ _____ _____    ______ ____
ROOT
ATOM      1  O   HOH     1      -6.609 -20.147  27.481  0.00  0.00    +0.000 OA
ENDROOT
TORSDOF 0
