REMARK  Name = ../refined-set-2016/1toj/1toj_pocket.pdb
REMARK  156 active torsions:
REMARK  status: ('A' for Active; 'I' for Inactive)
REMARK    1  A    between atoms: _1  and  _3
REMARK    2  A    between atoms: _3  and  _4
REMARK    3  A    between atoms: _3  and  _6
REMARK    4  A    between atoms: _6  and  _7
REMARK    5  A    between atoms: _11  and  _12
REMARK    6  A    between atoms: _17  and  _19
REMARK    7  A    between atoms: _19  and  _20
REMARK    8  A    between atoms: _19  and  _22
REMARK    9  A    between atoms: _22  and  _23
REMARK   10  A    between atoms: _26  and  _28
REMARK   11  A    between atoms: _28  and  _29
REMARK   12  A    between atoms: _28  and  _31
REMARK   13  A    between atoms: _31  and  _32
REMARK   14  A    between atoms: _35  and  _37
REMARK   15  A    between atoms: _37  and  _38
REMARK   16  A    between atoms: _40  and  _42
REMARK   17  A    between atoms: _42  and  _43
REMARK   18  A    between atoms: _42  and  _45
REMARK   19  A    between atoms: _45  and  _46
REMARK   20  A    between atoms: _49  and  _51
REMARK   21  A    between atoms: _51  and  _52
REMARK   22  A    between atoms: _51  and  _54
REMARK   23  A    between atoms: _54  and  _55
REMARK   24  A    between atoms: _58  and  _60
REMARK   25  A    between atoms: _60  and  _61
REMARK   26  A    between atoms: _63  and  _65
REMARK   27  A    between atoms: _65  and  _66
REMARK   28  A    between atoms: _65  and  _68
REMARK   29  A    between atoms: _68  and  _69
REMARK   30  A    between atoms: _72  and  _74
REMARK   31  A    between atoms: _74  and  _75
REMARK   32  A    between atoms: _77  and  _79
REMARK   33  A    between atoms: _79  and  _80
REMARK   34  A    between atoms: _79  and  _82
REMARK   35  A    between atoms: _85  and  _87
REMARK   36  A    between atoms: _87  and  _88
REMARK   37  A    between atoms: _90  and  _92
REMARK   38  A    between atoms: _92  and  _93
REMARK   39  A    between atoms: _92  and  _95
REMARK   40  A    between atoms: _95  and  _96
REMARK   41  A    between atoms: _98  and  _100
REMARK   42  A    between atoms: _100  and  _101
REMARK   43  A    between atoms: _103  and  _105
REMARK   44  A    between atoms: _105  and  _106
REMARK   45  A    between atoms: _105  and  _108
REMARK   46  A    between atoms: _108  and  _109
REMARK   47  A    between atoms: _112  and  _114
REMARK   48  A    between atoms: _114  and  _115
REMARK   49  A    between atoms: _114  and  _117
REMARK   50  A    between atoms: _117  and  _118
REMARK   51  A    between atoms: _120  and  _122
REMARK   52  A    between atoms: _122  and  _123
REMARK   53  A    between atoms: _122  and  _125
REMARK   54  A    between atoms: _125  and  _126
REMARK   55  A    between atoms: _137  and  _138
REMARK   56  A    between atoms: _143  and  _145
REMARK   57  A    between atoms: _145  and  _146
REMARK   58  A    between atoms: _145  and  _148
REMARK   59  A    between atoms: _148  and  _149
REMARK   60  A    between atoms: _154  and  _156
REMARK   61  A    between atoms: _156  and  _157
REMARK   62  A    between atoms: _156  and  _159
REMARK   63  A    between atoms: _159  and  _160
REMARK   64  A    between atoms: _165  and  _167
REMARK   65  A    between atoms: _167  and  _168
REMARK   66  A    between atoms: _167  and  _170
REMARK   67  A    between atoms: _170  and  _171
REMARK   68  A    between atoms: _177  and  _178
REMARK   69  A    between atoms: _183  and  _185
REMARK   70  A    between atoms: _185  and  _186
REMARK   71  A    between atoms: _189  and  _191
REMARK   72  A    between atoms: _191  and  _192
REMARK   73  A    between atoms: _191  and  _194
REMARK   74  A    between atoms: _194  and  _195
REMARK   75  A    between atoms: _200  and  _201
REMARK   76  A    between atoms: _203  and  _205
REMARK   77  A    between atoms: _205  and  _206
REMARK   78  A    between atoms: _205  and  _208
REMARK   79  A    between atoms: _208  and  _209
REMARK   80  A    between atoms: _211  and  _213
REMARK   81  A    between atoms: _213  and  _214
REMARK   82  A    between atoms: _213  and  _216
REMARK   83  A    between atoms: _216  and  _217
REMARK   84  A    between atoms: _224  and  _225
REMARK   85  A    between atoms: _225  and  _241
REMARK   86  A    between atoms: _226  and  _228
REMARK   87  A    between atoms: _228  and  _229
REMARK   88  A    between atoms: _229  and  _230
REMARK   89  A    between atoms: _234  and  _236
REMARK   90  A    between atoms: _236  and  _237
REMARK   91  A    between atoms: _236  and  _244
REMARK   92  A    between atoms: _237  and  _238
REMARK   93  A    between atoms: _238  and  _239
REMARK   94  A    between atoms: _239  and  _240
REMARK   95  A    between atoms: _240  and  _241
REMARK   96  A    between atoms: _246  and  _248
REMARK   97  A    between atoms: _248  and  _249
REMARK   98  A    between atoms: _248  and  _251
REMARK   99  A    between atoms: _251  and  _252
REMARK  100  A    between atoms: _257  and  _258
REMARK  101  A    between atoms: _260  and  _262
REMARK  102  A    between atoms: _262  and  _263
REMARK  103  A    between atoms: _262  and  _265
REMARK  104  A    between atoms: _265  and  _266
REMARK  105  A    between atoms: _266  and  _267
REMARK  106  A    between atoms: _267  and  _268
REMARK  107  A    between atoms: _277  and  _279
REMARK  108  A    between atoms: _279  and  _280
REMARK  109  A    between atoms: _279  and  _282
REMARK  110  A    between atoms: _282  and  _283
REMARK  111  A    between atoms: _283  and  _284
REMARK  112  A    between atoms: _286  and  _288
REMARK  113  A    between atoms: _288  and  _289
REMARK  114  A    between atoms: _288  and  _291
REMARK  115  A    between atoms: _291  and  _292
REMARK  116  A    between atoms: _298  and  _300
REMARK  117  A    between atoms: _300  and  _301
REMARK  118  A    between atoms: _300  and  _303
REMARK  119  A    between atoms: _306  and  _308
REMARK  120  A    between atoms: _308  and  _309
REMARK  121  A    between atoms: _308  and  _311
REMARK  122  A    between atoms: _311  and  _312
REMARK  123  A    between atoms: _312  and  _313
REMARK  124  A    between atoms: _313  and  _314
REMARK  125  A    between atoms: _323  and  _325
REMARK  126  A    between atoms: _325  and  _326
REMARK  127  A    between atoms: _325  and  _328
REMARK  128  A    between atoms: _328  and  _329
REMARK  129  A    between atoms: _334  and  _336
REMARK  130  A    between atoms: _336  and  _337
REMARK  131  A    between atoms: _336  and  _339
REMARK  132  A    between atoms: _339  and  _340
REMARK  133  A    between atoms: _345  and  _346
REMARK  134  A    between atoms: _348  and  _350
REMARK  135  A    between atoms: _350  and  _351
REMARK  136  A    between atoms: _350  and  _353
REMARK  137  A    between atoms: _353  and  _354
REMARK  138  A    between atoms: _357  and  _359
REMARK  139  A    between atoms: _359  and  _360
REMARK  140  A    between atoms: _359  and  _362
REMARK  141  A    between atoms: _362  and  _363
REMARK  142  A    between atoms: _363  and  _364
REMARK  143  A    between atoms: _364  and  _365
REMARK  144  A    between atoms: _374  and  _376
REMARK  145  A    between atoms: _376  and  _377
REMARK  146  A    between atoms: _376  and  _379
REMARK  147  A    between atoms: _379  and  _380
REMARK  148  A    between atoms: _385  and  _386
REMARK  149  A    between atoms: _388  and  _390
REMARK  150  A    between atoms: _390  and  _391
REMARK  151  A    between atoms: _390  and  _393
REMARK  152  A    between atoms: _393  and  _394
REMARK  153  A    between atoms: _396  and  _398
REMARK  154  A    between atoms: _398  and  _399
REMARK  155  A    between atoms: _398  and  _401
REMARK  156  A    between atoms: _401  and  _402
REMARK                            x       y       z     vdW  Elec       q    Type
REMARK                         _______ _______ _______ _____ _____    ______ ____
ROOT
ATOM      1  C   ILE A   3      26.130  25.302   9.259  0.00  0.00    +0.241 C 
ATOM      2  N   LEU A   4      26.992  25.415  10.271  0.00  0.00    -0.297 N 
ATOM      3  H   LEU A   4      27.728  26.148  10.227  0.00  0.00    +0.150 HD
ATOM      4  O   ILE A   3      25.259  24.434   9.223  0.00  0.00    -0.273 OA
ENDROOT
BRANCH   2   5
ATOM      5  CA  LEU A   4      26.932  24.530  11.451  0.00  0.00    +0.149 C 
BRANCH   5   6
ATOM      6  C   LEU A   4      25.584  24.603  12.188  0.00  0.00    +0.241 C 
ATOM      7  O   LEU A   4      25.140  23.619  12.777  0.00  0.00    -0.273 OA
ATOM      8  N   GLY A   5      24.938  25.760  12.132  0.00  0.00    -0.295 N 
ATOM      9  H   GLY A   5      25.378  26.560  11.634  0.00  0.00    +0.150 HD
BRANCH   8  10
ATOM     10  CA  GLY A   5      23.628  25.944  12.749  0.00  0.00    +0.176 C 
BRANCH  10  11
ATOM     11  C   GLY A   5      22.519  25.178  12.042  0.00  0.00    +0.243 C 
ATOM     12  O   GLY A   5      21.497  24.859  12.654  0.00  0.00    -0.273 OA
ATOM     13  N   LEU A   6      22.708  24.891  10.752  0.00  0.00    -0.298 N 
ATOM     14  H   LEU A   6      23.520  25.303  10.250  0.00  0.00    +0.150 HD
BRANCH  13  15
ATOM     15  CA  LEU A   6      21.786  24.001  10.030  0.00  0.00    +0.137 C 
BRANCH  15  16
ATOM     16  C   LEU A   6      21.657  22.647  10.717  0.00  0.00    +0.227 C 
ATOM     17  O   LEU A   6      20.578  22.058  10.731  0.00  0.00    -0.286 OA
ENDBRANCH  15  16
BRANCH  15  18
ATOM     18  CB  LEU A   6      22.228  23.787   8.580  0.00  0.00    +0.028 C 
BRANCH  18  19
ATOM     19  CG  LEU A   6      21.804  24.800   7.519  0.00  0.00    +0.002 C 
ATOM     20  CD2 LEU A   6      20.287  25.058   7.502  0.00  0.00    +0.000 C 
ATOM     21  CD1 LEU A   6      22.297  24.327   6.157  0.00  0.00    +0.000 C 
ENDBRANCH  18  19
ENDBRANCH  15  18
ENDBRANCH  13  15
ENDBRANCH  10  11
ENDBRANCH   8  10
ENDBRANCH   5   6
BRANCH   5  22
ATOM     22  CB  LEU A   4      28.080  24.821  12.432  0.00  0.00    +0.029 C 
BRANCH  22  23
ATOM     23  CG  LEU A   4      29.289  23.886  12.307  0.00  0.00    +0.002 C 
ATOM     24  CD2 LEU A   4      30.261  24.001  13.496  0.00  0.00    +0.000 C 
ATOM     25  CD1 LEU A   4      29.993  24.130  11.005  0.00  0.00    +0.000 C 
ENDBRANCH  22  23
ENDBRANCH   5  22
ENDBRANCH   2   5
BRANCH   1  26
ATOM     26  CA  ILE A   3      26.215  26.354   8.145  0.00  0.00    +0.149 C 
BRANCH  26  28
ATOM     27  C   PRO A   2      25.048  28.479   8.406  0.00  0.00    +0.241 C 
ATOM     28  N   ILE A   3      26.056  27.672   8.730  0.00  0.00    -0.297 N 
ATOM     29  H   ILE A   3      26.755  27.998   9.428  0.00  0.00    +0.150 HD
ATOM     30  O   PRO A   2      24.234  28.231   7.495  0.00  0.00    -0.273 OA
BRANCH  27  37
ATOM     31  C   ASP A   1      25.926  29.271  11.423  0.00  0.00    +0.242 C 
ATOM     32  O   ASP A   1      25.156  28.335  11.632  0.00  0.00    -0.273 OA
ATOM     33  N   PRO A   2      25.961  29.922  10.258  0.00  0.00    -0.272 N 
ATOM     34  CD  PRO A   2      27.025  30.844   9.810  0.00  0.00    +0.094 C 
ATOM     35  CG  PRO A   2      26.576  31.246   8.411  0.00  0.00    +0.024 C 
ATOM     36  CB  PRO A   2      25.098  30.990   8.362  0.00  0.00    +0.031 C 
ATOM     37  CA  PRO A   2      24.908  29.762   9.250  0.00  0.00    +0.152 C 
BRANCH  31  38
ATOM     38  CA  ASP A   1      26.880  29.747  12.523  0.00  0.00    +0.156 C 
BRANCH  38  39
ATOM     39  N   ASP A   1      26.082  30.095  13.701  0.00  0.00    -0.238 NA
ATOM     40  H   ASP A   1      26.396  29.774  14.639  0.00  0.00    +0.142 HD
ENDBRANCH  38  39
BRANCH  38  41
ATOM     41  CB  ASP A   1      27.875  28.643  12.889  0.00  0.00    +0.140 C 
BRANCH  41  42
ATOM     42  CG  ASP A   1      28.835  28.307  11.759  0.00  0.00    +0.367 C 
ATOM     43  OD2 ASP A   1      30.082  28.308  11.914  0.00  0.00    -0.246 OA
ATOM     44  OD1 ASP A   1      28.369  27.981  10.640  0.00  0.00    -0.246 OA
ENDBRANCH  41  42
ENDBRANCH  38  41
ENDBRANCH  31  38
ENDBRANCH  27  37
ENDBRANCH  26  28
BRANCH  26  45
ATOM     45  CB  ILE A   3      27.554  26.254   7.343  0.00  0.00    +0.027 C 
ATOM     46  CG2 ILE A   3      27.770  24.838   6.876  0.00  0.00    +0.002 C 
BRANCH  45  47
ATOM     47  CG1 ILE A   3      27.543  27.219   6.146  0.00  0.00    +0.002 C 
ATOM     48  CD1 ILE A   3      28.851  27.283   5.348  0.00  0.00    +0.000 C 
ENDBRANCH  45  47
ENDBRANCH  26  45
ENDBRANCH   1  26
TORSDOF 19
REMARK  Name = ../refined-set-2016/1toj/1toj_pocket.pdb
REMARK  156 active torsions:
REMARK  status: ('A' for Active; 'I' for Inactive)
REMARK    1  A    between atoms: _1  and  _3
REMARK    2  A    between atoms: _3  and  _4
REMARK    3  A    between atoms: _3  and  _6
REMARK    4  A    between atoms: _6  and  _7
REMARK    5  A    between atoms: _11  and  _12
REMARK    6  A    between atoms: _17  and  _19
REMARK    7  A    between atoms: _19  and  _20
REMARK    8  A    between atoms: _19  and  _22
REMARK    9  A    between atoms: _22  and  _23
REMARK   10  A    between atoms: _26  and  _28
REMARK   11  A    between atoms: _28  and  _29
REMARK   12  A    between atoms: _28  and  _31
REMARK   13  A    between atoms: _31  and  _32
REMARK   14  A    between atoms: _35  and  _37
REMARK   15  A    between atoms: _37  and  _38
REMARK   16  A    between atoms: _40  and  _42
REMARK   17  A    between atoms: _42  and  _43
REMARK   18  A    between atoms: _42  and  _45
REMARK   19  A    between atoms: _45  and  _46
REMARK   20  A    between atoms: _49  and  _51
REMARK   21  A    between atoms: _51  and  _52
REMARK   22  A    between atoms: _51  and  _54
REMARK   23  A    between atoms: _54  and  _55
REMARK   24  A    between atoms: _58  and  _60
REMARK   25  A    between atoms: _60  and  _61
REMARK   26  A    between atoms: _63  and  _65
REMARK   27  A    between atoms: _65  and  _66
REMARK   28  A    between atoms: _65  and  _68
REMARK   29  A    between atoms: _68  and  _69
REMARK   30  A    between atoms: _72  and  _74
REMARK   31  A    between atoms: _74  and  _75
REMARK   32  A    between atoms: _77  and  _79
REMARK   33  A    between atoms: _79  and  _80
REMARK   34  A    between atoms: _79  and  _82
REMARK   35  A    between atoms: _85  and  _87
REMARK   36  A    between atoms: _87  and  _88
REMARK   37  A    between atoms: _90  and  _92
REMARK   38  A    between atoms: _92  and  _93
REMARK   39  A    between atoms: _92  and  _95
REMARK   40  A    between atoms: _95  and  _96
REMARK   41  A    between atoms: _98  and  _100
REMARK   42  A    between atoms: _100  and  _101
REMARK   43  A    between atoms: _103  and  _105
REMARK   44  A    between atoms: _105  and  _106
REMARK   45  A    between atoms: _105  and  _108
REMARK   46  A    between atoms: _108  and  _109
REMARK   47  A    between atoms: _112  and  _114
REMARK   48  A    between atoms: _114  and  _115
REMARK   49  A    between atoms: _114  and  _117
REMARK   50  A    between atoms: _117  and  _118
REMARK   51  A    between atoms: _120  and  _122
REMARK   52  A    between atoms: _122  and  _123
REMARK   53  A    between atoms: _122  and  _125
REMARK   54  A    between atoms: _125  and  _126
REMARK   55  A    between atoms: _137  and  _138
REMARK   56  A    between atoms: _143  and  _145
REMARK   57  A    between atoms: _145  and  _146
REMARK   58  A    between atoms: _145  and  _148
REMARK   59  A    between atoms: _148  and  _149
REMARK   60  A    between atoms: _154  and  _156
REMARK   61  A    between atoms: _156  and  _157
REMARK   62  A    between atoms: _156  and  _159
REMARK   63  A    between atoms: _159  and  _160
REMARK   64  A    between atoms: _165  and  _167
REMARK   65  A    between atoms: _167  and  _168
REMARK   66  A    between atoms: _167  and  _170
REMARK   67  A    between atoms: _170  and  _171
REMARK   68  A    between atoms: _177  and  _178
REMARK   69  A    between atoms: _183  and  _185
REMARK   70  A    between atoms: _185  and  _186
REMARK   71  A    between atoms: _189  and  _191
REMARK   72  A    between atoms: _191  and  _192
REMARK   73  A    between atoms: _191  and  _194
REMARK   74  A    between atoms: _194  and  _195
REMARK   75  A    between atoms: _200  and  _201
REMARK   76  A    between atoms: _203  and  _205
REMARK   77  A    between atoms: _205  and  _206
REMARK   78  A    between atoms: _205  and  _208
REMARK   79  A    between atoms: _208  and  _209
REMARK   80  A    between atoms: _211  and  _213
REMARK   81  A    between atoms: _213  and  _214
REMARK   82  A    between atoms: _213  and  _216
REMARK   83  A    between atoms: _216  and  _217
REMARK   84  A    between atoms: _224  and  _225
REMARK   85  A    between atoms: _225  and  _241
REMARK   86  A    between atoms: _226  and  _228
REMARK   87  A    between atoms: _228  and  _229
REMARK   88  A    between atoms: _229  and  _230
REMARK   89  A    between atoms: _234  and  _236
REMARK   90  A    between atoms: _236  and  _237
REMARK   91  A    between atoms: _236  and  _244
REMARK   92  A    between atoms: _237  and  _238
REMARK   93  A    between atoms: _238  and  _239
REMARK   94  A    between atoms: _239  and  _240
REMARK   95  A    between atoms: _240  and  _241
REMARK   96  A    between atoms: _246  and  _248
REMARK   97  A    between atoms: _248  and  _249
REMARK   98  A    between atoms: _248  and  _251
REMARK   99  A    between atoms: _251  and  _252
REMARK  100  A    between atoms: _257  and  _258
REMARK  101  A    between atoms: _260  and  _262
REMARK  102  A    between atoms: _262  and  _263
REMARK  103  A    between atoms: _262  and  _265
REMARK  104  A    between atoms: _265  and  _266
REMARK  105  A    between atoms: _266  and  _267
REMARK  106  A    between atoms: _267  and  _268
REMARK  107  A    between atoms: _277  and  _279
REMARK  108  A    between atoms: _279  and  _280
REMARK  109  A    between atoms: _279  and  _282
REMARK  110  A    between atoms: _282  and  _283
REMARK  111  A    between atoms: _283  and  _284
REMARK  112  A    between atoms: _286  and  _288
REMARK  113  A    between atoms: _288  and  _289
REMARK  114  A    between atoms: _288  and  _291
REMARK  115  A    between atoms: _291  and  _292
REMARK  116  A    between atoms: _298  and  _300
REMARK  117  A    between atoms: _300  and  _301
REMARK  118  A    between atoms: _300  and  _303
REMARK  119  A    between atoms: _306  and  _308
REMARK  120  A    between atoms: _308  and  _309
REMARK  121  A    between atoms: _308  and  _311
REMARK  122  A    between atoms: _311  and  _312
REMARK  123  A    between atoms: _312  and  _313
REMARK  124  A    between atoms: _313  and  _314
REMARK  125  A    between atoms: _323  and  _325
REMARK  126  A    between atoms: _325  and  _326
REMARK  127  A    between atoms: _325  and  _328
REMARK  128  A    between atoms: _328  and  _329
REMARK  129  A    between atoms: _334  and  _336
REMARK  130  A    between atoms: _336  and  _337
REMARK  131  A    between atoms: _336  and  _339
REMARK  132  A    between atoms: _339  and  _340
REMARK  133  A    between atoms: _345  and  _346
REMARK  134  A    between atoms: _348  and  _350
REMARK  135  A    between atoms: _350  and  _351
REMARK  136  A    between atoms: _350  and  _353
REMARK  137  A    between atoms: _353  and  _354
REMARK  138  A    between atoms: _357  and  _359
REMARK  139  A    between atoms: _359  and  _360
REMARK  140  A    between atoms: _359  and  _362
REMARK  141  A    between atoms: _362  and  _363
REMARK  142  A    between atoms: _363  and  _364
REMARK  143  A    between atoms: _364  and  _365
REMARK  144  A    between atoms: _374  and  _376
REMARK  145  A    between atoms: _376  and  _377
REMARK  146  A    between atoms: _376  and  _379
REMARK  147  A    between atoms: _379  and  _380
REMARK  148  A    between atoms: _385  and  _386
REMARK  149  A    between atoms: _388  and  _390
REMARK  150  A    between atoms: _390  and  _391
REMARK  151  A    between atoms: _390  and  _393
REMARK  152  A    between atoms: _393  and  _394
REMARK  153  A    between atoms: _396  and  _398
REMARK  154  A    between atoms: _398  and  _399
REMARK  155  A    between atoms: _398  and  _401
REMARK  156  A    between atoms: _401  and  _402
REMARK                            x       y       z     vdW  Elec       q    Type
REMARK                         _______ _______ _______ _____ _____    ______ ____
ROOT
ATOM      1  CA  ILE A   3      27.262  21.223   5.903  0.00  0.00    +0.149 C 
ENDROOT
BRANCH   1   3
ATOM      2  C   GLY A   2      25.381  21.475   4.334  0.00  0.00    +0.243 C 
ATOM      3  N   ILE A   3      25.829  21.260   5.567  0.00  0.00    -0.297 N 
ATOM      4  H   ILE A   3      25.136  21.111   6.328  0.00  0.00    +0.150 HD
ATOM      5  O   GLY A   2      26.126  21.630   3.359  0.00  0.00    -0.273 OA
BRANCH   2   6
ATOM      6  CA  GLY A   2      23.870  21.475   4.166  0.00  0.00    +0.176 C 
BRANCH   6   8
ATOM      7  C   LEU A   1      23.096  20.054   2.322  0.00  0.00    +0.238 C 
ATOM      8  N   GLY A   2      23.321  20.224   3.621  0.00  0.00    -0.296 N 
ATOM      9  H   GLY A   2      23.101  19.445   4.275  0.00  0.00    +0.150 HD
ATOM     10  O   LEU A   1      23.488  20.845   1.465  0.00  0.00    -0.274 OA
BRANCH   7  11
ATOM     11  CA  LEU A   1      22.329  18.793   1.929  0.00  0.00    +0.145 C 
BRANCH  11  12
ATOM     12  N   LEU A   1      21.356  18.414   2.972  0.00  0.00    -0.238 NA
ATOM     13  H   LEU A   1      20.576  19.060   3.208  0.00  0.00    +0.142 HD
ENDBRANCH  11  12
BRANCH  11  14
ATOM     14  CB  LEU A   1      21.625  18.977   0.580  0.00  0.00    +0.026 C 
BRANCH  14  15
ATOM     15  CG  LEU A   1      20.725  17.824   0.088  0.00  0.00    +0.002 C 
ATOM     16  CD2 LEU A   1      21.546  16.536  -0.091  0.00  0.00    +0.000 C 
ATOM     17  CD1 LEU A   1      20.023  18.192  -1.222  0.00  0.00    +0.000 C 
ENDBRANCH  14  15
ENDBRANCH  11  14
ENDBRANCH   7  11
ENDBRANCH   6   8
ENDBRANCH   2   6
ENDBRANCH   1   3
BRANCH   1  18
ATOM     18  C   ILE A   3      27.994  20.211   5.019  0.00  0.00    +0.241 C 
ATOM     19  O   ILE A   3      27.489  19.115   4.763  0.00  0.00    -0.273 OA
ATOM     20  N   GLY A   4      29.179  20.584   4.559  0.00  0.00    -0.295 N 
ATOM     21  H   GLY A   4      29.596  21.476   4.894  0.00  0.00    +0.150 HD
BRANCH  20  22
ATOM     22  CA  GLY A   4      29.919  19.768   3.587  0.00  0.00    +0.176 C 
BRANCH  22  23
ATOM     23  C   GLY A   4      30.669  18.615   4.233  0.00  0.00    +0.243 C 
ATOM     24  N   VAL A   5      29.946  17.551   4.549  0.00  0.00    -0.298 N 
ATOM     25  H   VAL A   5      28.908  17.609   4.524  0.00  0.00    +0.150 HD
ATOM     26  O   GLY A   4      31.880  18.683   4.454  0.00  0.00    -0.273 OA
BRANCH  24  27
ATOM     27  CA  VAL A   5      30.592  16.292   4.933  0.00  0.00    +0.137 C 
BRANCH  27  28
ATOM     28  CB  VAL A   5      30.195  15.811   6.354  0.00  0.00    +0.026 C 
ATOM     29  CG2 VAL A   5      30.445  16.913   7.393  0.00  0.00    +0.002 C 
ATOM     30  CG1 VAL A   5      28.764  15.388   6.403  0.00  0.00    +0.002 C 
ENDBRANCH  27  28
BRANCH  27  31
ATOM     31  C   VAL A   5      30.239  15.248   3.878  0.00  0.00    +0.227 C 
ATOM     32  O   VAL A   5      29.154  15.288   3.291  0.00  0.00    -0.286 OA
ENDBRANCH  27  31
ENDBRANCH  24  27
ENDBRANCH  22  23
ENDBRANCH  20  22
ENDBRANCH   1  18
BRANCH   1  33
ATOM     33  CB  ILE A   3      27.447  20.857   7.399  0.00  0.00    +0.027 C 
ATOM     34  CG2 ILE A   3      28.910  20.931   7.793  0.00  0.00    +0.002 C 
BRANCH  33  35
ATOM     35  CG1 ILE A   3      26.618  21.808   8.270  0.00  0.00    +0.002 C 
ATOM     36  CD1 ILE A   3      26.460  21.363   9.709  0.00  0.00    +0.000 C 
ENDBRANCH  33  35
ENDBRANCH   1  33
TORSDOF 15
REMARK  Name = ../refined-set-2016/1toj/1toj_pocket.pdb
REMARK  156 active torsions:
REMARK  status: ('A' for Active; 'I' for Inactive)
REMARK    1  A    between atoms: _1  and  _3
REMARK    2  A    between atoms: _3  and  _4
REMARK    3  A    between atoms: _3  and  _6
REMARK    4  A    between atoms: _6  and  _7
REMARK    5  A    between atoms: _11  and  _12
REMARK    6  A    between atoms: _17  and  _19
REMARK    7  A    between atoms: _19  and  _20
REMARK    8  A    between atoms: _19  and  _22
REMARK    9  A    between atoms: _22  and  _23
REMARK   10  A    between atoms: _26  and  _28
REMARK   11  A    between atoms: _28  and  _29
REMARK   12  A    between atoms: _28  and  _31
REMARK   13  A    between atoms: _31  and  _32
REMARK   14  A    between atoms: _35  and  _37
REMARK   15  A    between atoms: _37  and  _38
REMARK   16  A    between atoms: _40  and  _42
REMARK   17  A    between atoms: _42  and  _43
REMARK   18  A    between atoms: _42  and  _45
REMARK   19  A    between atoms: _45  and  _46
REMARK   20  A    between atoms: _49  and  _51
REMARK   21  A    between atoms: _51  and  _52
REMARK   22  A    between atoms: _51  and  _54
REMARK   23  A    between atoms: _54  and  _55
REMARK   24  A    between atoms: _58  and  _60
REMARK   25  A    between atoms: _60  and  _61
REMARK   26  A    between atoms: _63  and  _65
REMARK   27  A    between atoms: _65  and  _66
REMARK   28  A    between atoms: _65  and  _68
REMARK   29  A    between atoms: _68  and  _69
REMARK   30  A    between atoms: _72  and  _74
REMARK   31  A    between atoms: _74  and  _75
REMARK   32  A    between atoms: _77  and  _79
REMARK   33  A    between atoms: _79  and  _80
REMARK   34  A    between atoms: _79  and  _82
REMARK   35  A    between atoms: _85  and  _87
REMARK   36  A    between atoms: _87  and  _88
REMARK   37  A    between atoms: _90  and  _92
REMARK   38  A    between atoms: _92  and  _93
REMARK   39  A    between atoms: _92  and  _95
REMARK   40  A    between atoms: _95  and  _96
REMARK   41  A    between atoms: _98  and  _100
REMARK   42  A    between atoms: _100  and  _101
REMARK   43  A    between atoms: _103  and  _105
REMARK   44  A    between atoms: _105  and  _106
REMARK   45  A    between atoms: _105  and  _108
REMARK   46  A    between atoms: _108  and  _109
REMARK   47  A    between atoms: _112  and  _114
REMARK   48  A    between atoms: _114  and  _115
REMARK   49  A    between atoms: _114  and  _117
REMARK   50  A    between atoms: _117  and  _118
REMARK   51  A    between atoms: _120  and  _122
REMARK   52  A    between atoms: _122  and  _123
REMARK   53  A    between atoms: _122  and  _125
REMARK   54  A    between atoms: _125  and  _126
REMARK   55  A    between atoms: _137  and  _138
REMARK   56  A    between atoms: _143  and  _145
REMARK   57  A    between atoms: _145  and  _146
REMARK   58  A    between atoms: _145  and  _148
REMARK   59  A    between atoms: _148  and  _149
REMARK   60  A    between atoms: _154  and  _156
REMARK   61  A    between atoms: _156  and  _157
REMARK   62  A    between atoms: _156  and  _159
REMARK   63  A    between atoms: _159  and  _160
REMARK   64  A    between atoms: _165  and  _167
REMARK   65  A    between atoms: _167  and  _168
REMARK   66  A    between atoms: _167  and  _170
REMARK   67  A    between atoms: _170  and  _171
REMARK   68  A    between atoms: _177  and  _178
REMARK   69  A    between atoms: _183  and  _185
REMARK   70  A    between atoms: _185  and  _186
REMARK   71  A    between atoms: _189  and  _191
REMARK   72  A    between atoms: _191  and  _192
REMARK   73  A    between atoms: _191  and  _194
REMARK   74  A    between atoms: _194  and  _195
REMARK   75  A    between atoms: _200  and  _201
REMARK   76  A    between atoms: _203  and  _205
REMARK   77  A    between atoms: _205  and  _206
REMARK   78  A    between atoms: _205  and  _208
REMARK   79  A    between atoms: _208  and  _209
REMARK   80  A    between atoms: _211  and  _213
REMARK   81  A    between atoms: _213  and  _214
REMARK   82  A    between atoms: _213  and  _216
REMARK   83  A    between atoms: _216  and  _217
REMARK   84  A    between atoms: _224  and  _225
REMARK   85  A    between atoms: _225  and  _241
REMARK   86  A    between atoms: _226  and  _228
REMARK   87  A    between atoms: _228  and  _229
REMARK   88  A    between atoms: _229  and  _230
REMARK   89  A    between atoms: _234  and  _236
REMARK   90  A    between atoms: _236  and  _237
REMARK   91  A    between atoms: _236  and  _244
REMARK   92  A    between atoms: _237  and  _238
REMARK   93  A    between atoms: _238  and  _239
REMARK   94  A    between atoms: _239  and  _240
REMARK   95  A    between atoms: _240  and  _241
REMARK   96  A    between atoms: _246  and  _248
REMARK   97  A    between atoms: _248  and  _249
REMARK   98  A    between atoms: _248  and  _251
REMARK   99  A    between atoms: _251  and  _252
REMARK  100  A    between atoms: _257  and  _258
REMARK  101  A    between atoms: _260  and  _262
REMARK  102  A    between atoms: _262  and  _263
REMARK  103  A    between atoms: _262  and  _265
REMARK  104  A    between atoms: _265  and  _266
REMARK  105  A    between atoms: _266  and  _267
REMARK  106  A    between atoms: _267  and  _268
REMARK  107  A    between atoms: _277  and  _279
REMARK  108  A    between atoms: _279  and  _280
REMARK  109  A    between atoms: _279  and  _282
REMARK  110  A    between atoms: _282  and  _283
REMARK  111  A    between atoms: _283  and  _284
REMARK  112  A    between atoms: _286  and  _288
REMARK  113  A    between atoms: _288  and  _289
REMARK  114  A    between atoms: _288  and  _291
REMARK  115  A    between atoms: _291  and  _292
REMARK  116  A    between atoms: _298  and  _300
REMARK  117  A    between atoms: _300  and  _301
REMARK  118  A    between atoms: _300  and  _303
REMARK  119  A    between atoms: _306  and  _308
REMARK  120  A    between atoms: _308  and  _309
REMARK  121  A    between atoms: _308  and  _311
REMARK  122  A    between atoms: _311  and  _312
REMARK  123  A    between atoms: _312  and  _313
REMARK  124  A    between atoms: _313  and  _314
REMARK  125  A    between atoms: _323  and  _325
REMARK  126  A    between atoms: _325  and  _326
REMARK  127  A    between atoms: _325  and  _328
REMARK  128  A    between atoms: _328  and  _329
REMARK  129  A    between atoms: _334  and  _336
REMARK  130  A    between atoms: _336  and  _337
REMARK  131  A    between atoms: _336  and  _339
REMARK  132  A    between atoms: _339  and  _340
REMARK  133  A    between atoms: _345  and  _346
REMARK  134  A    between atoms: _348  and  _350
REMARK  135  A    between atoms: _350  and  _351
REMARK  136  A    between atoms: _350  and  _353
REMARK  137  A    between atoms: _353  and  _354
REMARK  138  A    between atoms: _357  and  _359
REMARK  139  A    between atoms: _359  and  _360
REMARK  140  A    between atoms: _359  and  _362
REMARK  141  A    between atoms: _362  and  _363
REMARK  142  A    between atoms: _363  and  _364
REMARK  143  A    between atoms: _364  and  _365
REMARK  144  A    between atoms: _374  and  _376
REMARK  145  A    between atoms: _376  and  _377
REMARK  146  A    between atoms: _376  and  _379
REMARK  147  A    between atoms: _379  and  _380
REMARK  148  A    between atoms: _385  and  _386
REMARK  149  A    between atoms: _388  and  _390
REMARK  150  A    between atoms: _390  and  _391
REMARK  151  A    between atoms: _390  and  _393
REMARK  152  A    between atoms: _393  and  _394
REMARK  153  A    between atoms: _396  and  _398
REMARK  154  A    between atoms: _398  and  _399
REMARK  155  A    between atoms: _398  and  _401
REMARK  156  A    between atoms: _401  and  _402
REMARK                            x       y       z     vdW  Elec       q    Type
REMARK                         _______ _______ _______ _____ _____    ______ ____
ROOT
ATOM      1  CA  SER A   2      39.590  26.809  10.982  0.00  0.00    +0.178 C 
ENDROOT
BRANCH   1   3
ATOM      2  C   GLY A   1      41.320  25.812   9.591  0.00  0.00    +0.240 C 
ATOM      3  N   SER A   2      40.191  25.658  10.286  0.00  0.00    -0.295 N 
ATOM      4  H   SER A   2      39.735  24.725  10.336  0.00  0.00    +0.150 HD
ATOM      5  O   GLY A   1      41.844  26.928   9.405  0.00  0.00    -0.274 OA
BRANCH   2   6
ATOM      6  CA  GLY A   1      41.937  24.562   8.988  0.00  0.00    +0.169 C 
BRANCH   6   7
ATOM      7  N   GLY A   1      41.663  23.361   9.771  0.00  0.00    -0.236 NA
ATOM      8  H   GLY A   1      41.144  22.572   9.334  0.00  0.00    +0.142 HD
ENDBRANCH   6   7
ENDBRANCH   2   6
ENDBRANCH   1   3
BRANCH   1   9
ATOM      9  C   SER A   2      40.573  27.342  12.021  0.00  0.00    +0.243 C 
ATOM     10  N   GLY A   3      41.164  26.439  12.809  0.00  0.00    -0.296 N 
ATOM     11  H   GLY A   3      40.921  25.432  12.720  0.00  0.00    +0.150 HD
ATOM     12  O   SER A   2      40.819  28.552  12.098  0.00  0.00    -0.273 OA
BRANCH  10  13
ATOM     13  CA  GLY A   3      42.155  26.869  13.798  0.00  0.00    +0.163 C 
BRANCH  13  14
ATOM     14  C   GLY A   3      43.343  27.527  13.103  0.00  0.00    +0.229 C 
ATOM     15  O   GLY A   3      43.900  28.520  13.594  0.00  0.00    -0.286 OA
ENDBRANCH  13  14
ENDBRANCH  10  13
ENDBRANCH   1   9
BRANCH   1  16
ATOM     16  CB  SER A   2      38.260  26.442  11.652  0.00  0.00    +0.166 C 
BRANCH  16  17
ATOM     17  OG  SER A   2      37.302  26.010  10.687  0.00  0.00    -0.380 OA
ATOM     18  H   SER A   2      37.649  25.213  10.213  0.00  0.00    +0.211 HD
ENDBRANCH  16  17
ENDBRANCH   1  16
TORSDOF 8
REMARK  Name = ../refined-set-2016/1toj/1toj_pocket.pdb
REMARK  156 active torsions:
REMARK  status: ('A' for Active; 'I' for Inactive)
REMARK    1  A    between atoms: _1  and  _3
REMARK    2  A    between atoms: _3  and  _4
REMARK    3  A    between atoms: _3  and  _6
REMARK    4  A    between atoms: _6  and  _7
REMARK    5  A    between atoms: _11  and  _12
REMARK    6  A    between atoms: _17  and  _19
REMARK    7  A    between atoms: _19  and  _20
REMARK    8  A    between atoms: _19  and  _22
REMARK    9  A    between atoms: _22  and  _23
REMARK   10  A    between atoms: _26  and  _28
REMARK   11  A    between atoms: _28  and  _29
REMARK   12  A    between atoms: _28  and  _31
REMARK   13  A    between atoms: _31  and  _32
REMARK   14  A    between atoms: _35  and  _37
REMARK   15  A    between atoms: _37  and  _38
REMARK   16  A    between atoms: _40  and  _42
REMARK   17  A    between atoms: _42  and  _43
REMARK   18  A    between atoms: _42  and  _45
REMARK   19  A    between atoms: _45  and  _46
REMARK   20  A    between atoms: _49  and  _51
REMARK   21  A    between atoms: _51  and  _52
REMARK   22  A    between atoms: _51  and  _54
REMARK   23  A    between atoms: _54  and  _55
REMARK   24  A    between atoms: _58  and  _60
REMARK   25  A    between atoms: _60  and  _61
REMARK   26  A    between atoms: _63  and  _65
REMARK   27  A    between atoms: _65  and  _66
REMARK   28  A    between atoms: _65  and  _68
REMARK   29  A    between atoms: _68  and  _69
REMARK   30  A    between atoms: _72  and  _74
REMARK   31  A    between atoms: _74  and  _75
REMARK   32  A    between atoms: _77  and  _79
REMARK   33  A    between atoms: _79  and  _80
REMARK   34  A    between atoms: _79  and  _82
REMARK   35  A    between atoms: _85  and  _87
REMARK   36  A    between atoms: _87  and  _88
REMARK   37  A    between atoms: _90  and  _92
REMARK   38  A    between atoms: _92  and  _93
REMARK   39  A    between atoms: _92  and  _95
REMARK   40  A    between atoms: _95  and  _96
REMARK   41  A    between atoms: _98  and  _100
REMARK   42  A    between atoms: _100  and  _101
REMARK   43  A    between atoms: _103  and  _105
REMARK   44  A    between atoms: _105  and  _106
REMARK   45  A    between atoms: _105  and  _108
REMARK   46  A    between atoms: _108  and  _109
REMARK   47  A    between atoms: _112  and  _114
REMARK   48  A    between atoms: _114  and  _115
REMARK   49  A    between atoms: _114  and  _117
REMARK   50  A    between atoms: _117  and  _118
REMARK   51  A    between atoms: _120  and  _122
REMARK   52  A    between atoms: _122  and  _123
REMARK   53  A    between atoms: _122  and  _125
REMARK   54  A    between atoms: _125  and  _126
REMARK   55  A    between atoms: _137  and  _138
REMARK   56  A    between atoms: _143  and  _145
REMARK   57  A    between atoms: _145  and  _146
REMARK   58  A    between atoms: _145  and  _148
REMARK   59  A    between atoms: _148  and  _149
REMARK   60  A    between atoms: _154  and  _156
REMARK   61  A    between atoms: _156  and  _157
REMARK   62  A    between atoms: _156  and  _159
REMARK   63  A    between atoms: _159  and  _160
REMARK   64  A    between atoms: _165  and  _167
REMARK   65  A    between atoms: _167  and  _168
REMARK   66  A    between atoms: _167  and  _170
REMARK   67  A    between atoms: _170  and  _171
REMARK   68  A    between atoms: _177  and  _178
REMARK   69  A    between atoms: _183  and  _185
REMARK   70  A    between atoms: _185  and  _186
REMARK   71  A    between atoms: _189  and  _191
REMARK   72  A    between atoms: _191  and  _192
REMARK   73  A    between atoms: _191  and  _194
REMARK   74  A    between atoms: _194  and  _195
REMARK   75  A    between atoms: _200  and  _201
REMARK   76  A    between atoms: _203  and  _205
REMARK   77  A    between atoms: _205  and  _206
REMARK   78  A    between atoms: _205  and  _208
REMARK   79  A    between atoms: _208  and  _209
REMARK   80  A    between atoms: _211  and  _213
REMARK   81  A    between atoms: _213  and  _214
REMARK   82  A    between atoms: _213  and  _216
REMARK   83  A    between atoms: _216  and  _217
REMARK   84  A    between atoms: _224  and  _225
REMARK   85  A    between atoms: _225  and  _241
REMARK   86  A    between atoms: _226  and  _228
REMARK   87  A    between atoms: _228  and  _229
REMARK   88  A    between atoms: _229  and  _230
REMARK   89  A    between atoms: _234  and  _236
REMARK   90  A    between atoms: _236  and  _237
REMARK   91  A    between atoms: _236  and  _244
REMARK   92  A    between atoms: _237  and  _238
REMARK   93  A    between atoms: _238  and  _239
REMARK   94  A    between atoms: _239  and  _240
REMARK   95  A    between atoms: _240  and  _241
REMARK   96  A    between atoms: _246  and  _248
REMARK   97  A    between atoms: _248  and  _249
REMARK   98  A    between atoms: _248  and  _251
REMARK   99  A    between atoms: _251  and  _252
REMARK  100  A    between atoms: _257  and  _258
REMARK  101  A    between atoms: _260  and  _262
REMARK  102  A    between atoms: _262  and  _263
REMARK  103  A    between atoms: _262  and  _265
REMARK  104  A    between atoms: _265  and  _266
REMARK  105  A    between atoms: _266  and  _267
REMARK  106  A    between atoms: _267  and  _268
REMARK  107  A    between atoms: _277  and  _279
REMARK  108  A    between atoms: _279  and  _280
REMARK  109  A    between atoms: _279  and  _282
REMARK  110  A    between atoms: _282  and  _283
REMARK  111  A    between atoms: _283  and  _284
REMARK  112  A    between atoms: _286  and  _288
REMARK  113  A    between atoms: _288  and  _289
REMARK  114  A    between atoms: _288  and  _291
REMARK  115  A    between atoms: _291  and  _292
REMARK  116  A    between atoms: _298  and  _300
REMARK  117  A    between atoms: _300  and  _301
REMARK  118  A    between atoms: _300  and  _303
REMARK  119  A    between atoms: _306  and  _308
REMARK  120  A    between atoms: _308  and  _309
REMARK  121  A    between atoms: _308  and  _311
REMARK  122  A    between atoms: _311  and  _312
REMARK  123  A    between atoms: _312  and  _313
REMARK  124  A    between atoms: _313  and  _314
REMARK  125  A    between atoms: _323  and  _325
REMARK  126  A    between atoms: _325  and  _326
REMARK  127  A    between atoms: _325  and  _328
REMARK  128  A    between atoms: _328  and  _329
REMARK  129  A    between atoms: _334  and  _336
REMARK  130  A    between atoms: _336  and  _337
REMARK  131  A    between atoms: _336  and  _339
REMARK  132  A    between atoms: _339  and  _340
REMARK  133  A    between atoms: _345  and  _346
REMARK  134  A    between atoms: _348  and  _350
REMARK  135  A    between atoms: _350  and  _351
REMARK  136  A    between atoms: _350  and  _353
REMARK  137  A    between atoms: _353  and  _354
REMARK  138  A    between atoms: _357  and  _359
REMARK  139  A    between atoms: _359  and  _360
REMARK  140  A    between atoms: _359  and  _362
REMARK  141  A    between atoms: _362  and  _363
REMARK  142  A    between atoms: _363  and  _364
REMARK  143  A    between atoms: _364  and  _365
REMARK  144  A    between atoms: _374  and  _376
REMARK  145  A    between atoms: _376  and  _377
REMARK  146  A    between atoms: _376  and  _379
REMARK  147  A    between atoms: _379  and  _380
REMARK  148  A    between atoms: _385  and  _386
REMARK  149  A    between atoms: _388  and  _390
REMARK  150  A    between atoms: _390  and  _391
REMARK  151  A    between atoms: _390  and  _393
REMARK  152  A    between atoms: _393  and  _394
REMARK  153  A    between atoms: _396  and  _398
REMARK  154  A    between atoms: _398  and  _399
REMARK  155  A    between atoms: _398  and  _401
REMARK  156  A    between atoms: _401  and  _402
REMARK                            x       y       z     vdW  Elec       q    Type
REMARK                         _______ _______ _______ _____ _____    ______ ____
ROOT
ATOM      1  CA  LEU A   1      42.924  30.510   9.849  0.00  0.00    +0.133 C 
ENDROOT
BRANCH   1   2
ATOM      2  N   LEU A   1      43.330  29.149  10.263  0.00  0.00    -0.239 NA
ATOM      3  H   LEU A   1      42.656  28.361  10.186  0.00  0.00    +0.142 HD
ENDBRANCH   1   2
BRANCH   1   4
ATOM      4  C   LEU A   1      43.010  31.517  10.994  0.00  0.00    +0.224 C 
ATOM      5  O   LEU A   1      43.487  32.645  10.811  0.00  0.00    -0.287 OA
ENDBRANCH   1   4
BRANCH   1   6
ATOM      6  CB  LEU A   1      41.495  30.478   9.328  0.00  0.00    +0.025 C 
BRANCH   6   7
ATOM      7  CG  LEU A   1      41.107  30.298   7.850  0.00  0.00    +0.002 C 
ATOM      8  CD2 LEU A   1      39.971  29.365   7.565  0.00  0.00    +0.000 C 
ATOM      9  CD1 LEU A   1      42.128  30.478   6.714  0.00  0.00    +0.000 C 
ENDBRANCH   6   7
ENDBRANCH   1   6
TORSDOF 4
REMARK  Name = ../refined-set-2016/1toj/1toj_pocket.pdb
REMARK  156 active torsions:
REMARK  status: ('A' for Active; 'I' for Inactive)
REMARK    1  A    between atoms: _1  and  _3
REMARK    2  A    between atoms: _3  and  _4
REMARK    3  A    between atoms: _3  and  _6
REMARK    4  A    between atoms: _6  and  _7
REMARK    5  A    between atoms: _11  and  _12
REMARK    6  A    between atoms: _17  and  _19
REMARK    7  A    between atoms: _19  and  _20
REMARK    8  A    between atoms: _19  and  _22
REMARK    9  A    between atoms: _22  and  _23
REMARK   10  A    between atoms: _26  and  _28
REMARK   11  A    between atoms: _28  and  _29
REMARK   12  A    between atoms: _28  and  _31
REMARK   13  A    between atoms: _31  and  _32
REMARK   14  A    between atoms: _35  and  _37
REMARK   15  A    between atoms: _37  and  _38
REMARK   16  A    between atoms: _40  and  _42
REMARK   17  A    between atoms: _42  and  _43
REMARK   18  A    between atoms: _42  and  _45
REMARK   19  A    between atoms: _45  and  _46
REMARK   20  A    between atoms: _49  and  _51
REMARK   21  A    between atoms: _51  and  _52
REMARK   22  A    between atoms: _51  and  _54
REMARK   23  A    between atoms: _54  and  _55
REMARK   24  A    between atoms: _58  and  _60
REMARK   25  A    between atoms: _60  and  _61
REMARK   26  A    between atoms: _63  and  _65
REMARK   27  A    between atoms: _65  and  _66
REMARK   28  A    between atoms: _65  and  _68
REMARK   29  A    between atoms: _68  and  _69
REMARK   30  A    between atoms: _72  and  _74
REMARK   31  A    between atoms: _74  and  _75
REMARK   32  A    between atoms: _77  and  _79
REMARK   33  A    between atoms: _79  and  _80
REMARK   34  A    between atoms: _79  and  _82
REMARK   35  A    between atoms: _85  and  _87
REMARK   36  A    between atoms: _87  and  _88
REMARK   37  A    between atoms: _90  and  _92
REMARK   38  A    between atoms: _92  and  _93
REMARK   39  A    between atoms: _92  and  _95
REMARK   40  A    between atoms: _95  and  _96
REMARK   41  A    between atoms: _98  and  _100
REMARK   42  A    between atoms: _100  and  _101
REMARK   43  A    between atoms: _103  and  _105
REMARK   44  A    between atoms: _105  and  _106
REMARK   45  A    between atoms: _105  and  _108
REMARK   46  A    between atoms: _108  and  _109
REMARK   47  A    between atoms: _112  and  _114
REMARK   48  A    between atoms: _114  and  _115
REMARK   49  A    between atoms: _114  and  _117
REMARK   50  A    between atoms: _117  and  _118
REMARK   51  A    between atoms: _120  and  _122
REMARK   52  A    between atoms: _122  and  _123
REMARK   53  A    between atoms: _122  and  _125
REMARK   54  A    between atoms: _125  and  _126
REMARK   55  A    between atoms: _137  and  _138
REMARK   56  A    between atoms: _143  and  _145
REMARK   57  A    between atoms: _145  and  _146
REMARK   58  A    between atoms: _145  and  _148
REMARK   59  A    between atoms: _148  and  _149
REMARK   60  A    between atoms: _154  and  _156
REMARK   61  A    between atoms: _156  and  _157
REMARK   62  A    between atoms: _156  and  _159
REMARK   63  A    between atoms: _159  and  _160
REMARK   64  A    between atoms: _165  and  _167
REMARK   65  A    between atoms: _167  and  _168
REMARK   66  A    between atoms: _167  and  _170
REMARK   67  A    between atoms: _170  and  _171
REMARK   68  A    between atoms: _177  and  _178
REMARK   69  A    between atoms: _183  and  _185
REMARK   70  A    between atoms: _185  and  _186
REMARK   71  A    between atoms: _189  and  _191
REMARK   72  A    between atoms: _191  and  _192
REMARK   73  A    between atoms: _191  and  _194
REMARK   74  A    between atoms: _194  and  _195
REMARK   75  A    between atoms: _200  and  _201
REMARK   76  A    between atoms: _203  and  _205
REMARK   77  A    between atoms: _205  and  _206
REMARK   78  A    between atoms: _205  and  _208
REMARK   79  A    between atoms: _208  and  _209
REMARK   80  A    between atoms: _211  and  _213
REMARK   81  A    between atoms: _213  and  _214
REMARK   82  A    between atoms: _213  and  _216
REMARK   83  A    between atoms: _216  and  _217
REMARK   84  A    between atoms: _224  and  _225
REMARK   85  A    between atoms: _225  and  _241
REMARK   86  A    between atoms: _226  and  _228
REMARK   87  A    between atoms: _228  and  _229
REMARK   88  A    between atoms: _229  and  _230
REMARK   89  A    between atoms: _234  and  _236
REMARK   90  A    between atoms: _236  and  _237
REMARK   91  A    between atoms: _236  and  _244
REMARK   92  A    between atoms: _237  and  _238
REMARK   93  A    between atoms: _238  and  _239
REMARK   94  A    between atoms: _239  and  _240
REMARK   95  A    between atoms: _240  and  _241
REMARK   96  A    between atoms: _246  and  _248
REMARK   97  A    between atoms: _248  and  _249
REMARK   98  A    between atoms: _248  and  _251
REMARK   99  A    between atoms: _251  and  _252
REMARK  100  A    between atoms: _257  and  _258
REMARK  101  A    between atoms: _260  and  _262
REMARK  102  A    between atoms: _262  and  _263
REMARK  103  A    between atoms: _262  and  _265
REMARK  104  A    between atoms: _265  and  _266
REMARK  105  A    between atoms: _266  and  _267
REMARK  106  A    between atoms: _267  and  _268
REMARK  107  A    between atoms: _277  and  _279
REMARK  108  A    between atoms: _279  and  _280
REMARK  109  A    between atoms: _279  and  _282
REMARK  110  A    between atoms: _282  and  _283
REMARK  111  A    between atoms: _283  and  _284
REMARK  112  A    between atoms: _286  and  _288
REMARK  113  A    between atoms: _288  and  _289
REMARK  114  A    between atoms: _288  and  _291
REMARK  115  A    between atoms: _291  and  _292
REMARK  116  A    between atoms: _298  and  _300
REMARK  117  A    between atoms: _300  and  _301
REMARK  118  A    between atoms: _300  and  _303
REMARK  119  A    between atoms: _306  and  _308
REMARK  120  A    between atoms: _308  and  _309
REMARK  121  A    between atoms: _308  and  _311
REMARK  122  A    between atoms: _311  and  _312
REMARK  123  A    between atoms: _312  and  _313
REMARK  124  A    between atoms: _313  and  _314
REMARK  125  A    between atoms: _323  and  _325
REMARK  126  A    between atoms: _325  and  _326
REMARK  127  A    between atoms: _325  and  _328
REMARK  128  A    between atoms: _328  and  _329
REMARK  129  A    between atoms: _334  and  _336
REMARK  130  A    between atoms: _336  and  _337
REMARK  131  A    between atoms: _336  and  _339
REMARK  132  A    between atoms: _339  and  _340
REMARK  133  A    between atoms: _345  and  _346
REMARK  134  A    between atoms: _348  and  _350
REMARK  135  A    between atoms: _350  and  _351
REMARK  136  A    between atoms: _350  and  _353
REMARK  137  A    between atoms: _353  and  _354
REMARK  138  A    between atoms: _357  and  _359
REMARK  139  A    between atoms: _359  and  _360
REMARK  140  A    between atoms: _359  and  _362
REMARK  141  A    between atoms: _362  and  _363
REMARK  142  A    between atoms: _363  and  _364
REMARK  143  A    between atoms: _364  and  _365
REMARK  144  A    between atoms: _374  and  _376
REMARK  145  A    between atoms: _376  and  _377
REMARK  146  A    between atoms: _376  and  _379
REMARK  147  A    between atoms: _379  and  _380
REMARK  148  A    between atoms: _385  and  _386
REMARK  149  A    between atoms: _388  and  _390
REMARK  150  A    between atoms: _390  and  _391
REMARK  151  A    between atoms: _390  and  _393
REMARK  152  A    between atoms: _393  and  _394
REMARK  153  A    between atoms: _396  and  _398
REMARK  154  A    between atoms: _398  and  _399
REMARK  155  A    between atoms: _398  and  _401
REMARK  156  A    between atoms: _401  and  _402
REMARK                            x       y       z     vdW  Elec       q    Type
REMARK                         _______ _______ _______ _____ _____    ______ ____
ROOT
ATOM      1  C   TRP A   2      32.485  32.068   4.226  0.00  0.00    +0.244 C 
ATOM      2  N   PRO A   3      31.329  31.935   4.882  0.00  0.00    -0.272 N 
ATOM      3  CA  PRO A   3      30.941  32.827   5.991  0.00  0.00    +0.152 C 
ATOM      4  CB  PRO A   3      29.712  32.124   6.578  0.00  0.00    +0.031 C 
ATOM      5  CG  PRO A   3      29.119  31.418   5.428  0.00  0.00    +0.024 C 
ATOM      6  CD  PRO A   3      30.282  30.925   4.609  0.00  0.00    +0.094 C 
ATOM      7  O   TRP A   2      33.384  32.825   4.591  0.00  0.00    -0.273 OA
ENDROOT
BRANCH   3   8
ATOM      8  C   PRO A   3      32.009  32.960   7.078  0.00  0.00    +0.241 C 
ATOM      9  O   PRO A   3      32.229  34.054   7.608  0.00  0.00    -0.273 OA
ATOM     10  N   ASN A   4      32.675  31.863   7.422  0.00  0.00    -0.297 N 
ATOM     11  H   ASN A   4      32.556  30.978   6.888  0.00  0.00    +0.150 HD
BRANCH  10  12
ATOM     12  CA  ASN A   4      33.579  31.929   8.568  0.00  0.00    +0.158 C 
BRANCH  12  13
ATOM     13  C   ASN A   4      34.855  32.741   8.335  0.00  0.00    +0.241 C 
ATOM     14  O   ASN A   4      35.490  33.132   9.296  0.00  0.00    -0.273 OA
ATOM     15  N   HIS A   5      35.244  32.997   7.082  0.00  0.00    -0.298 N 
ATOM     16  H   HIS A   5      34.739  32.579   6.275  0.00  0.00    +0.150 HD
BRANCH  15  17
ATOM     17  CA  HIS A   5      36.393  33.876   6.867  0.00  0.00    +0.143 C 
BRANCH  17  18
ATOM     18  C   HIS A   5      36.169  35.251   7.492  0.00  0.00    +0.227 C 
ATOM     19  O   HIS A   5      36.995  35.739   8.257  0.00  0.00    -0.286 OA
ENDBRANCH  17  18
BRANCH  17  20
ATOM     20  CB  HIS A   5      36.734  34.036   5.386  0.00  0.00    +0.075 C 
BRANCH  20  21
ATOM     21  CG  HIS A   5      37.338  32.812   4.779  0.00  0.00    +0.082 A 
ATOM     22  CD2 HIS A   5      38.216  31.905   5.279  0.00  0.00    +0.115 A 
ATOM     23  NE2 HIS A   5      38.417  30.960   4.303  0.00  0.00    -0.221 NA
ATOM     24  CE1 HIS A   5      37.681  31.269   3.247  0.00  0.00    +0.199 A 
ATOM     25  ND1 HIS A   5      37.019  32.383   3.511  0.00  0.00    -0.227 NA
ENDBRANCH  20  21
ENDBRANCH  17  20
ENDBRANCH  15  17
ENDBRANCH  12  13
BRANCH  12  26
ATOM     26  CB  ASN A   4      33.924  30.545   9.112  0.00  0.00    +0.114 C 
BRANCH  26  27
ATOM     27  CG  ASN A   4      32.827  29.983  10.010  0.00  0.00    +0.222 C 
ATOM     28  OD1 ASN A   4      33.047  29.019  10.747  0.00  0.00    -0.275 OA
ATOM     29  ND2 ASN A   4      31.647  30.583   9.949  0.00  0.00    -0.329 N 
ATOM     30 HD21 ASN A   4      30.860  30.244  10.538  0.00  0.00    +0.145 HD
ATOM     31 HD22 ASN A   4      31.508  31.393   9.312  0.00  0.00    +0.145 HD
ENDBRANCH  26  27
ENDBRANCH  12  26
ENDBRANCH  10  12
ENDBRANCH   3   8
BRANCH   1  32
ATOM     32  CA  TRP A   2      32.647  31.292   2.925  0.00  0.00    +0.153 C 
BRANCH  32  34
ATOM     33  C   SER A   1      31.964  32.714   1.048  0.00  0.00    +0.241 C 
ATOM     34  N   TRP A   2      32.889  32.324   1.914  0.00  0.00    -0.297 N 
ATOM     35  H   TRP A   2      33.828  32.770   1.874  0.00  0.00    +0.150 HD
ATOM     36  O   SER A   1      30.946  32.071   0.816  0.00  0.00    -0.274 OA
BRANCH  33  37
ATOM     37  CA  SER A   1      32.268  33.994   0.270  0.00  0.00    +0.174 C 
BRANCH  37  38
ATOM     38  N   SER A   1      31.299  34.172  -0.786  0.00  0.00    -0.236 NA
ATOM     39  H   SER A   1      30.323  34.422  -0.530  0.00  0.00    +0.142 HD
ENDBRANCH  37  38
BRANCH  37  40
ATOM     40  CB  SER A   1      32.240  35.214   1.198  0.00  0.00    +0.163 C 
BRANCH  40  41
ATOM     41  OG  SER A   1      30.928  35.433   1.698  0.00  0.00    -0.380 OA
ATOM     42  H   SER A   1      30.931  36.224   2.294  0.00  0.00    +0.211 HD
ENDBRANCH  40  41
ENDBRANCH  37  40
ENDBRANCH  33  37
ENDBRANCH  32  34
BRANCH  32  43
ATOM     43  CB  TRP A   2      33.854  30.366   2.996  0.00  0.00    +0.057 C 
BRANCH  43  44
ATOM     44  CG  TRP A   2      33.702  29.154   3.894  0.00  0.00    -0.002 A 
ATOM     45  CD2 TRP A   2      34.510  28.826   5.032  0.00  0.00    +0.013 A 
ATOM     46  CE3 TRP A   2      35.592  29.454   5.680  0.00  0.00    +0.001 A 
ATOM     47  CZ3 TRP A   2      36.166  28.833   6.811  0.00  0.00    +0.000 A 
ATOM     48  CH2 TRP A   2      35.684  27.607   7.278  0.00  0.00    +0.001 A 
ATOM     49  CZ2 TRP A   2      34.628  26.968   6.656  0.00  0.00    +0.017 A 
ATOM     50  CE2 TRP A   2      34.055  27.585   5.531  0.00  0.00    +0.056 A 
ATOM     51  NE1 TRP A   2      33.016  27.173   4.728  0.00  0.00    -0.352 N 
ATOM     52  HE1 TRP A   2      32.479  26.289   4.840  0.00  0.00    +0.166 HD
ATOM     53  CD1 TRP A   2      32.803  28.121   3.752  0.00  0.00    +0.068 A 
ENDBRANCH  43  44
ENDBRANCH  32  43
ENDBRANCH   1  32
TORSDOF 17
REMARK  Name = ../refined-set-2016/1toj/1toj_pocket.pdb
REMARK  156 active torsions:
REMARK  status: ('A' for Active; 'I' for Inactive)
REMARK    1  A    between atoms: _1  and  _3
REMARK    2  A    between atoms: _3  and  _4
REMARK    3  A    between atoms: _3  and  _6
REMARK    4  A    between atoms: _6  and  _7
REMARK    5  A    between atoms: _11  and  _12
REMARK    6  A    between atoms: _17  and  _19
REMARK    7  A    between atoms: _19  and  _20
REMARK    8  A    between atoms: _19  and  _22
REMARK    9  A    between atoms: _22  and  _23
REMARK   10  A    between atoms: _26  and  _28
REMARK   11  A    between atoms: _28  and  _29
REMARK   12  A    between atoms: _28  and  _31
REMARK   13  A    between atoms: _31  and  _32
REMARK   14  A    between atoms: _35  and  _37
REMARK   15  A    between atoms: _37  and  _38
REMARK   16  A    between atoms: _40  and  _42
REMARK   17  A    between atoms: _42  and  _43
REMARK   18  A    between atoms: _42  and  _45
REMARK   19  A    between atoms: _45  and  _46
REMARK   20  A    between atoms: _49  and  _51
REMARK   21  A    between atoms: _51  and  _52
REMARK   22  A    between atoms: _51  and  _54
REMARK   23  A    between atoms: _54  and  _55
REMARK   24  A    between atoms: _58  and  _60
REMARK   25  A    between atoms: _60  and  _61
REMARK   26  A    between atoms: _63  and  _65
REMARK   27  A    between atoms: _65  and  _66
REMARK   28  A    between atoms: _65  and  _68
REMARK   29  A    between atoms: _68  and  _69
REMARK   30  A    between atoms: _72  and  _74
REMARK   31  A    between atoms: _74  and  _75
REMARK   32  A    between atoms: _77  and  _79
REMARK   33  A    between atoms: _79  and  _80
REMARK   34  A    between atoms: _79  and  _82
REMARK   35  A    between atoms: _85  and  _87
REMARK   36  A    between atoms: _87  and  _88
REMARK   37  A    between atoms: _90  and  _92
REMARK   38  A    between atoms: _92  and  _93
REMARK   39  A    between atoms: _92  and  _95
REMARK   40  A    between atoms: _95  and  _96
REMARK   41  A    between atoms: _98  and  _100
REMARK   42  A    between atoms: _100  and  _101
REMARK   43  A    between atoms: _103  and  _105
REMARK   44  A    between atoms: _105  and  _106
REMARK   45  A    between atoms: _105  and  _108
REMARK   46  A    between atoms: _108  and  _109
REMARK   47  A    between atoms: _112  and  _114
REMARK   48  A    between atoms: _114  and  _115
REMARK   49  A    between atoms: _114  and  _117
REMARK   50  A    between atoms: _117  and  _118
REMARK   51  A    between atoms: _120  and  _122
REMARK   52  A    between atoms: _122  and  _123
REMARK   53  A    between atoms: _122  and  _125
REMARK   54  A    between atoms: _125  and  _126
REMARK   55  A    between atoms: _137  and  _138
REMARK   56  A    between atoms: _143  and  _145
REMARK   57  A    between atoms: _145  and  _146
REMARK   58  A    between atoms: _145  and  _148
REMARK   59  A    between atoms: _148  and  _149
REMARK   60  A    between atoms: _154  and  _156
REMARK   61  A    between atoms: _156  and  _157
REMARK   62  A    between atoms: _156  and  _159
REMARK   63  A    between atoms: _159  and  _160
REMARK   64  A    between atoms: _165  and  _167
REMARK   65  A    between atoms: _167  and  _168
REMARK   66  A    between atoms: _167  and  _170
REMARK   67  A    between atoms: _170  and  _171
REMARK   68  A    between atoms: _177  and  _178
REMARK   69  A    between atoms: _183  and  _185
REMARK   70  A    between atoms: _185  and  _186
REMARK   71  A    between atoms: _189  and  _191
REMARK   72  A    between atoms: _191  and  _192
REMARK   73  A    between atoms: _191  and  _194
REMARK   74  A    between atoms: _194  and  _195
REMARK   75  A    between atoms: _200  and  _201
REMARK   76  A    between atoms: _203  and  _205
REMARK   77  A    between atoms: _205  and  _206
REMARK   78  A    between atoms: _205  and  _208
REMARK   79  A    between atoms: _208  and  _209
REMARK   80  A    between atoms: _211  and  _213
REMARK   81  A    between atoms: _213  and  _214
REMARK   82  A    between atoms: _213  and  _216
REMARK   83  A    between atoms: _216  and  _217
REMARK   84  A    between atoms: _224  and  _225
REMARK   85  A    between atoms: _225  and  _241
REMARK   86  A    between atoms: _226  and  _228
REMARK   87  A    between atoms: _228  and  _229
REMARK   88  A    between atoms: _229  and  _230
REMARK   89  A    between atoms: _234  and  _236
REMARK   90  A    between atoms: _236  and  _237
REMARK   91  A    between atoms: _236  and  _244
REMARK   92  A    between atoms: _237  and  _238
REMARK   93  A    between atoms: _238  and  _239
REMARK   94  A    between atoms: _239  and  _240
REMARK   95  A    between atoms: _240  and  _241
REMARK   96  A    between atoms: _246  and  _248
REMARK   97  A    between atoms: _248  and  _249
REMARK   98  A    between atoms: _248  and  _251
REMARK   99  A    between atoms: _251  and  _252
REMARK  100  A    between atoms: _257  and  _258
REMARK  101  A    between atoms: _260  and  _262
REMARK  102  A    between atoms: _262  and  _263
REMARK  103  A    between atoms: _262  and  _265
REMARK  104  A    between atoms: _265  and  _266
REMARK  105  A    between atoms: _266  and  _267
REMARK  106  A    between atoms: _267  and  _268
REMARK  107  A    between atoms: _277  and  _279
REMARK  108  A    between atoms: _279  and  _280
REMARK  109  A    between atoms: _279  and  _282
REMARK  110  A    between atoms: _282  and  _283
REMARK  111  A    between atoms: _283  and  _284
REMARK  112  A    between atoms: _286  and  _288
REMARK  113  A    between atoms: _288  and  _289
REMARK  114  A    between atoms: _288  and  _291
REMARK  115  A    between atoms: _291  and  _292
REMARK  116  A    between atoms: _298  and  _300
REMARK  117  A    between atoms: _300  and  _301
REMARK  118  A    between atoms: _300  and  _303
REMARK  119  A    between atoms: _306  and  _308
REMARK  120  A    between atoms: _308  and  _309
REMARK  121  A    between atoms: _308  and  _311
REMARK  122  A    between atoms: _311  and  _312
REMARK  123  A    between atoms: _312  and  _313
REMARK  124  A    between atoms: _313  and  _314
REMARK  125  A    between atoms: _323  and  _325
REMARK  126  A    between atoms: _325  and  _326
REMARK  127  A    between atoms: _325  and  _328
REMARK  128  A    between atoms: _328  and  _329
REMARK  129  A    between atoms: _334  and  _336
REMARK  130  A    between atoms: _336  and  _337
REMARK  131  A    between atoms: _336  and  _339
REMARK  132  A    between atoms: _339  and  _340
REMARK  133  A    between atoms: _345  and  _346
REMARK  134  A    between atoms: _348  and  _350
REMARK  135  A    between atoms: _350  and  _351
REMARK  136  A    between atoms: _350  and  _353
REMARK  137  A    between atoms: _353  and  _354
REMARK  138  A    between atoms: _357  and  _359
REMARK  139  A    between atoms: _359  and  _360
REMARK  140  A    between atoms: _359  and  _362
REMARK  141  A    between atoms: _362  and  _363
REMARK  142  A    between atoms: _363  and  _364
REMARK  143  A    between atoms: _364  and  _365
REMARK  144  A    between atoms: _374  and  _376
REMARK  145  A    between atoms: _376  and  _377
REMARK  146  A    between atoms: _376  and  _379
REMARK  147  A    between atoms: _379  and  _380
REMARK  148  A    between atoms: _385  and  _386
REMARK  149  A    between atoms: _388  and  _390
REMARK  150  A    between atoms: _390  and  _391
REMARK  151  A    between atoms: _390  and  _393
REMARK  152  A    between atoms: _393  and  _394
REMARK  153  A    between atoms: _396  and  _398
REMARK  154  A    between atoms: _398  and  _399
REMARK  155  A    between atoms: _398  and  _401
REMARK  156  A    between atoms: _401  and  _402
REMARK                            x       y       z     vdW  Elec       q    Type
REMARK                         _______ _______ _______ _____ _____    ______ ____
ROOT
ATOM      1  CA  ASN A   1      33.642  26.981  -1.655  0.00  0.00    +0.154 C 
ENDROOT
BRANCH   1   2
ATOM      2  C   ASN A   1      32.984  28.364  -1.598  0.00  0.00    +0.242 C 
ATOM      3  O   ASN A   1      33.514  29.238  -0.898  0.00  0.00    -0.273 OA
ATOM      4  N   PRO A   2      31.815  28.575  -2.224  0.00  0.00    -0.273 N 
ATOM      5  CD  PRO A   2      31.207  29.918  -2.381  0.00  0.00    +0.094 C 
ATOM      6  CG  PRO A   2      29.718  29.618  -2.526  0.00  0.00    +0.024 C 
ATOM      7  CB  PRO A   2      29.549  28.112  -2.184  0.00  0.00    +0.030 C 
ATOM      8  CA  PRO A   2      30.885  27.525  -2.640  0.00  0.00    +0.140 C 
BRANCH   8   9
ATOM      9  C   PRO A   2      30.748  27.202  -4.142  0.00  0.00    +0.227 C 
ATOM     10  O   PRO A   2      29.929  26.339  -4.476  0.00  0.00    -0.286 OA
ENDBRANCH   8   9
ENDBRANCH   1   2
BRANCH   1  11
ATOM     11  N   ASN A   1      34.875  27.124  -2.419  0.00  0.00    -0.238 NA
ATOM     12  H   ASN A   1      35.687  27.600  -1.976  0.00  0.00    +0.142 HD
ENDBRANCH   1  11
BRANCH   1  13
ATOM     13  CB  ASN A   1      34.020  26.495  -0.242  0.00  0.00    +0.111 C 
BRANCH  13  14
ATOM     14  CG  ASN A   1      32.807  26.142   0.628  0.00  0.00    +0.221 C 
ATOM     15  ND2 ASN A   1      33.060  25.389   1.698  0.00  0.00    -0.329 N 
ATOM     16 HD21 ASN A   1      32.288  25.128   2.344  0.00  0.00    +0.145 HD
ATOM     17 HD22 ASN A   1      34.029  25.063   1.887  0.00  0.00    +0.145 HD
ATOM     18  OD1 ASN A   1      31.673  26.555   0.359  0.00  0.00    -0.275 OA
ENDBRANCH  13  14
ENDBRANCH   1  13
TORSDOF 5
REMARK  Name = ../refined-set-2016/1toj/1toj_pocket.pdb
REMARK  156 active torsions:
REMARK  status: ('A' for Active; 'I' for Inactive)
REMARK    1  A    between atoms: _1  and  _3
REMARK    2  A    between atoms: _3  and  _4
REMARK    3  A    between atoms: _3  and  _6
REMARK    4  A    between atoms: _6  and  _7
REMARK    5  A    between atoms: _11  and  _12
REMARK    6  A    between atoms: _17  and  _19
REMARK    7  A    between atoms: _19  and  _20
REMARK    8  A    between atoms: _19  and  _22
REMARK    9  A    between atoms: _22  and  _23
REMARK   10  A    between atoms: _26  and  _28
REMARK   11  A    between atoms: _28  and  _29
REMARK   12  A    between atoms: _28  and  _31
REMARK   13  A    between atoms: _31  and  _32
REMARK   14  A    between atoms: _35  and  _37
REMARK   15  A    between atoms: _37  and  _38
REMARK   16  A    between atoms: _40  and  _42
REMARK   17  A    between atoms: _42  and  _43
REMARK   18  A    between atoms: _42  and  _45
REMARK   19  A    between atoms: _45  and  _46
REMARK   20  A    between atoms: _49  and  _51
REMARK   21  A    between atoms: _51  and  _52
REMARK   22  A    between atoms: _51  and  _54
REMARK   23  A    between atoms: _54  and  _55
REMARK   24  A    between atoms: _58  and  _60
REMARK   25  A    between atoms: _60  and  _61
REMARK   26  A    between atoms: _63  and  _65
REMARK   27  A    between atoms: _65  and  _66
REMARK   28  A    between atoms: _65  and  _68
REMARK   29  A    between atoms: _68  and  _69
REMARK   30  A    between atoms: _72  and  _74
REMARK   31  A    between atoms: _74  and  _75
REMARK   32  A    between atoms: _77  and  _79
REMARK   33  A    between atoms: _79  and  _80
REMARK   34  A    between atoms: _79  and  _82
REMARK   35  A    between atoms: _85  and  _87
REMARK   36  A    between atoms: _87  and  _88
REMARK   37  A    between atoms: _90  and  _92
REMARK   38  A    between atoms: _92  and  _93
REMARK   39  A    between atoms: _92  and  _95
REMARK   40  A    between atoms: _95  and  _96
REMARK   41  A    between atoms: _98  and  _100
REMARK   42  A    between atoms: _100  and  _101
REMARK   43  A    between atoms: _103  and  _105
REMARK   44  A    between atoms: _105  and  _106
REMARK   45  A    between atoms: _105  and  _108
REMARK   46  A    between atoms: _108  and  _109
REMARK   47  A    between atoms: _112  and  _114
REMARK   48  A    between atoms: _114  and  _115
REMARK   49  A    between atoms: _114  and  _117
REMARK   50  A    between atoms: _117  and  _118
REMARK   51  A    between atoms: _120  and  _122
REMARK   52  A    between atoms: _122  and  _123
REMARK   53  A    between atoms: _122  and  _125
REMARK   54  A    between atoms: _125  and  _126
REMARK   55  A    between atoms: _137  and  _138
REMARK   56  A    between atoms: _143  and  _145
REMARK   57  A    between atoms: _145  and  _146
REMARK   58  A    between atoms: _145  and  _148
REMARK   59  A    between atoms: _148  and  _149
REMARK   60  A    between atoms: _154  and  _156
REMARK   61  A    between atoms: _156  and  _157
REMARK   62  A    between atoms: _156  and  _159
REMARK   63  A    between atoms: _159  and  _160
REMARK   64  A    between atoms: _165  and  _167
REMARK   65  A    between atoms: _167  and  _168
REMARK   66  A    between atoms: _167  and  _170
REMARK   67  A    between atoms: _170  and  _171
REMARK   68  A    between atoms: _177  and  _178
REMARK   69  A    between atoms: _183  and  _185
REMARK   70  A    between atoms: _185  and  _186
REMARK   71  A    between atoms: _189  and  _191
REMARK   72  A    between atoms: _191  and  _192
REMARK   73  A    between atoms: _191  and  _194
REMARK   74  A    between atoms: _194  and  _195
REMARK   75  A    between atoms: _200  and  _201
REMARK   76  A    between atoms: _203  and  _205
REMARK   77  A    between atoms: _205  and  _206
REMARK   78  A    between atoms: _205  and  _208
REMARK   79  A    between atoms: _208  and  _209
REMARK   80  A    between atoms: _211  and  _213
REMARK   81  A    between atoms: _213  and  _214
REMARK   82  A    between atoms: _213  and  _216
REMARK   83  A    between atoms: _216  and  _217
REMARK   84  A    between atoms: _224  and  _225
REMARK   85  A    between atoms: _225  and  _241
REMARK   86  A    between atoms: _226  and  _228
REMARK   87  A    between atoms: _228  and  _229
REMARK   88  A    between atoms: _229  and  _230
REMARK   89  A    between atoms: _234  and  _236
REMARK   90  A    between atoms: _236  and  _237
REMARK   91  A    between atoms: _236  and  _244
REMARK   92  A    between atoms: _237  and  _238
REMARK   93  A    between atoms: _238  and  _239
REMARK   94  A    between atoms: _239  and  _240
REMARK   95  A    between atoms: _240  and  _241
REMARK   96  A    between atoms: _246  and  _248
REMARK   97  A    between atoms: _248  and  _249
REMARK   98  A    between atoms: _248  and  _251
REMARK   99  A    between atoms: _251  and  _252
REMARK  100  A    between atoms: _257  and  _258
REMARK  101  A    between atoms: _260  and  _262
REMARK  102  A    between atoms: _262  and  _263
REMARK  103  A    between atoms: _262  and  _265
REMARK  104  A    between atoms: _265  and  _266
REMARK  105  A    between atoms: _266  and  _267
REMARK  106  A    between atoms: _267  and  _268
REMARK  107  A    between atoms: _277  and  _279
REMARK  108  A    between atoms: _279  and  _280
REMARK  109  A    between atoms: _279  and  _282
REMARK  110  A    between atoms: _282  and  _283
REMARK  111  A    between atoms: _283  and  _284
REMARK  112  A    between atoms: _286  and  _288
REMARK  113  A    between atoms: _288  and  _289
REMARK  114  A    between atoms: _288  and  _291
REMARK  115  A    between atoms: _291  and  _292
REMARK  116  A    between atoms: _298  and  _300
REMARK  117  A    between atoms: _300  and  _301
REMARK  118  A    between atoms: _300  and  _303
REMARK  119  A    between atoms: _306  and  _308
REMARK  120  A    between atoms: _308  and  _309
REMARK  121  A    between atoms: _308  and  _311
REMARK  122  A    between atoms: _311  and  _312
REMARK  123  A    between atoms: _312  and  _313
REMARK  124  A    between atoms: _313  and  _314
REMARK  125  A    between atoms: _323  and  _325
REMARK  126  A    between atoms: _325  and  _326
REMARK  127  A    between atoms: _325  and  _328
REMARK  128  A    between atoms: _328  and  _329
REMARK  129  A    between atoms: _334  and  _336
REMARK  130  A    between atoms: _336  and  _337
REMARK  131  A    between atoms: _336  and  _339
REMARK  132  A    between atoms: _339  and  _340
REMARK  133  A    between atoms: _345  and  _346
REMARK  134  A    between atoms: _348  and  _350
REMARK  135  A    between atoms: _350  and  _351
REMARK  136  A    between atoms: _350  and  _353
REMARK  137  A    between atoms: _353  and  _354
REMARK  138  A    between atoms: _357  and  _359
REMARK  139  A    between atoms: _359  and  _360
REMARK  140  A    between atoms: _359  and  _362
REMARK  141  A    between atoms: _362  and  _363
REMARK  142  A    between atoms: _363  and  _364
REMARK  143  A    between atoms: _364  and  _365
REMARK  144  A    between atoms: _374  and  _376
REMARK  145  A    between atoms: _376  and  _377
REMARK  146  A    between atoms: _376  and  _379
REMARK  147  A    between atoms: _379  and  _380
REMARK  148  A    between atoms: _385  and  _386
REMARK  149  A    between atoms: _388  and  _390
REMARK  150  A    between atoms: _390  and  _391
REMARK  151  A    between atoms: _390  and  _393
REMARK  152  A    between atoms: _393  and  _394
REMARK  153  A    between atoms: _396  and  _398
REMARK  154  A    between atoms: _398  and  _399
REMARK  155  A    between atoms: _398  and  _401
REMARK  156  A    between atoms: _401  and  _402
REMARK                            x       y       z     vdW  Elec       q    Type
REMARK                         _______ _______ _______ _____ _____    ______ ____
ROOT
ATOM      1  CA  TYR A   2      39.927  20.001  -0.265  0.00  0.00    +0.141 C 
ENDROOT
BRANCH   1   4
ATOM      2  C   ALA A   1      40.282  21.012   1.914  0.00  0.00    +0.238 C 
ATOM      3  O   ALA A   1      39.744  20.067   2.493  0.00  0.00    -0.274 OA
ATOM      4  N   TYR A   2      40.480  21.040   0.593  0.00  0.00    -0.298 N 
ATOM      5  H   TYR A   2      41.035  21.812   0.173  0.00  0.00    +0.150 HD
BRANCH   2   6
ATOM      6  CA  ALA A   1      40.701  22.235   2.708  0.00  0.00    +0.145 C 
ATOM      7  CB  ALA A   1      39.458  22.881   3.328  0.00  0.00    +0.028 C 
BRANCH   6   8
ATOM      8  N   ALA A   1      41.434  23.226   1.934  0.00  0.00    -0.238 NA
ATOM      9  H   ALA A   1      40.913  23.845   1.281  0.00  0.00    +0.142 HD
ENDBRANCH   6   8
ENDBRANCH   2   6
ENDBRANCH   1   4
BRANCH   1  10
ATOM     10  C   TYR A   2      40.958  19.325  -1.161  0.00  0.00    +0.227 C 
ATOM     11  O   TYR A   2      40.611  18.881  -2.256  0.00  0.00    -0.286 OA
ENDBRANCH   1  10
BRANCH   1  12
ATOM     12  CB  TYR A   2      38.776  20.576  -1.132  0.00  0.00    +0.054 C 
BRANCH  12  13
ATOM     13  CG  TYR A   2      37.554  20.949  -0.322  0.00  0.00    -0.020 A 
ATOM     14  CD2 TYR A   2      36.661  19.972   0.109  0.00  0.00    -0.001 A 
ATOM     15  CE2 TYR A   2      35.557  20.301   0.868  0.00  0.00    +0.036 A 
ATOM     16  CZ  TYR A   2      35.334  21.634   1.183  0.00  0.00    +0.134 A 
ATOM     17  CE1 TYR A   2      36.215  22.620   0.783  0.00  0.00    +0.036 A 
ATOM     18  CD1 TYR A   2      37.307  22.277   0.023  0.00  0.00    -0.001 A 
BRANCH  16  19
ATOM     19  OH  TYR A   2      34.263  21.961   1.952  0.00  0.00    -0.506 OA
ATOM     20  HH  TYR A   2      33.738  21.145   2.148  0.00  0.00    +0.292 HD
ENDBRANCH  16  19
ENDBRANCH  12  13
ENDBRANCH   1  12
TORSDOF 7
REMARK  Name = ../refined-set-2016/1toj/1toj_pocket.pdb
REMARK  156 active torsions:
REMARK  status: ('A' for Active; 'I' for Inactive)
REMARK    1  A    between atoms: _1  and  _3
REMARK    2  A    between atoms: _3  and  _4
REMARK    3  A    between atoms: _3  and  _6
REMARK    4  A    between atoms: _6  and  _7
REMARK    5  A    between atoms: _11  and  _12
REMARK    6  A    between atoms: _17  and  _19
REMARK    7  A    between atoms: _19  and  _20
REMARK    8  A    between atoms: _19  and  _22
REMARK    9  A    between atoms: _22  and  _23
REMARK   10  A    between atoms: _26  and  _28
REMARK   11  A    between atoms: _28  and  _29
REMARK   12  A    between atoms: _28  and  _31
REMARK   13  A    between atoms: _31  and  _32
REMARK   14  A    between atoms: _35  and  _37
REMARK   15  A    between atoms: _37  and  _38
REMARK   16  A    between atoms: _40  and  _42
REMARK   17  A    between atoms: _42  and  _43
REMARK   18  A    between atoms: _42  and  _45
REMARK   19  A    between atoms: _45  and  _46
REMARK   20  A    between atoms: _49  and  _51
REMARK   21  A    between atoms: _51  and  _52
REMARK   22  A    between atoms: _51  and  _54
REMARK   23  A    between atoms: _54  and  _55
REMARK   24  A    between atoms: _58  and  _60
REMARK   25  A    between atoms: _60  and  _61
REMARK   26  A    between atoms: _63  and  _65
REMARK   27  A    between atoms: _65  and  _66
REMARK   28  A    between atoms: _65  and  _68
REMARK   29  A    between atoms: _68  and  _69
REMARK   30  A    between atoms: _72  and  _74
REMARK   31  A    between atoms: _74  and  _75
REMARK   32  A    between atoms: _77  and  _79
REMARK   33  A    between atoms: _79  and  _80
REMARK   34  A    between atoms: _79  and  _82
REMARK   35  A    between atoms: _85  and  _87
REMARK   36  A    between atoms: _87  and  _88
REMARK   37  A    between atoms: _90  and  _92
REMARK   38  A    between atoms: _92  and  _93
REMARK   39  A    between atoms: _92  and  _95
REMARK   40  A    between atoms: _95  and  _96
REMARK   41  A    between atoms: _98  and  _100
REMARK   42  A    between atoms: _100  and  _101
REMARK   43  A    between atoms: _103  and  _105
REMARK   44  A    between atoms: _105  and  _106
REMARK   45  A    between atoms: _105  and  _108
REMARK   46  A    between atoms: _108  and  _109
REMARK   47  A    between atoms: _112  and  _114
REMARK   48  A    between atoms: _114  and  _115
REMARK   49  A    between atoms: _114  and  _117
REMARK   50  A    between atoms: _117  and  _118
REMARK   51  A    between atoms: _120  and  _122
REMARK   52  A    between atoms: _122  and  _123
REMARK   53  A    between atoms: _122  and  _125
REMARK   54  A    between atoms: _125  and  _126
REMARK   55  A    between atoms: _137  and  _138
REMARK   56  A    between atoms: _143  and  _145
REMARK   57  A    between atoms: _145  and  _146
REMARK   58  A    between atoms: _145  and  _148
REMARK   59  A    between atoms: _148  and  _149
REMARK   60  A    between atoms: _154  and  _156
REMARK   61  A    between atoms: _156  and  _157
REMARK   62  A    between atoms: _156  and  _159
REMARK   63  A    between atoms: _159  and  _160
REMARK   64  A    between atoms: _165  and  _167
REMARK   65  A    between atoms: _167  and  _168
REMARK   66  A    between atoms: _167  and  _170
REMARK   67  A    between atoms: _170  and  _171
REMARK   68  A    between atoms: _177  and  _178
REMARK   69  A    between atoms: _183  and  _185
REMARK   70  A    between atoms: _185  and  _186
REMARK   71  A    between atoms: _189  and  _191
REMARK   72  A    between atoms: _191  and  _192
REMARK   73  A    between atoms: _191  and  _194
REMARK   74  A    between atoms: _194  and  _195
REMARK   75  A    between atoms: _200  and  _201
REMARK   76  A    between atoms: _203  and  _205
REMARK   77  A    between atoms: _205  and  _206
REMARK   78  A    between atoms: _205  and  _208
REMARK   79  A    between atoms: _208  and  _209
REMARK   80  A    between atoms: _211  and  _213
REMARK   81  A    between atoms: _213  and  _214
REMARK   82  A    between atoms: _213  and  _216
REMARK   83  A    between atoms: _216  and  _217
REMARK   84  A    between atoms: _224  and  _225
REMARK   85  A    between atoms: _225  and  _241
REMARK   86  A    between atoms: _226  and  _228
REMARK   87  A    between atoms: _228  and  _229
REMARK   88  A    between atoms: _229  and  _230
REMARK   89  A    between atoms: _234  and  _236
REMARK   90  A    between atoms: _236  and  _237
REMARK   91  A    between atoms: _236  and  _244
REMARK   92  A    between atoms: _237  and  _238
REMARK   93  A    between atoms: _238  and  _239
REMARK   94  A    between atoms: _239  and  _240
REMARK   95  A    between atoms: _240  and  _241
REMARK   96  A    between atoms: _246  and  _248
REMARK   97  A    between atoms: _248  and  _249
REMARK   98  A    between atoms: _248  and  _251
REMARK   99  A    between atoms: _251  and  _252
REMARK  100  A    between atoms: _257  and  _258
REMARK  101  A    between atoms: _260  and  _262
REMARK  102  A    between atoms: _262  and  _263
REMARK  103  A    between atoms: _262  and  _265
REMARK  104  A    between atoms: _265  and  _266
REMARK  105  A    between atoms: _266  and  _267
REMARK  106  A    between atoms: _267  and  _268
REMARK  107  A    between atoms: _277  and  _279
REMARK  108  A    between atoms: _279  and  _280
REMARK  109  A    between atoms: _279  and  _282
REMARK  110  A    between atoms: _282  and  _283
REMARK  111  A    between atoms: _283  and  _284
REMARK  112  A    between atoms: _286  and  _288
REMARK  113  A    between atoms: _288  and  _289
REMARK  114  A    between atoms: _288  and  _291
REMARK  115  A    between atoms: _291  and  _292
REMARK  116  A    between atoms: _298  and  _300
REMARK  117  A    between atoms: _300  and  _301
REMARK  118  A    between atoms: _300  and  _303
REMARK  119  A    between atoms: _306  and  _308
REMARK  120  A    between atoms: _308  and  _309
REMARK  121  A    between atoms: _308  and  _311
REMARK  122  A    between atoms: _311  and  _312
REMARK  123  A    between atoms: _312  and  _313
REMARK  124  A    between atoms: _313  and  _314
REMARK  125  A    between atoms: _323  and  _325
REMARK  126  A    between atoms: _325  and  _326
REMARK  127  A    between atoms: _325  and  _328
REMARK  128  A    between atoms: _328  and  _329
REMARK  129  A    between atoms: _334  and  _336
REMARK  130  A    between atoms: _336  and  _337
REMARK  131  A    between atoms: _336  and  _339
REMARK  132  A    between atoms: _339  and  _340
REMARK  133  A    between atoms: _345  and  _346
REMARK  134  A    between atoms: _348  and  _350
REMARK  135  A    between atoms: _350  and  _351
REMARK  136  A    between atoms: _350  and  _353
REMARK  137  A    between atoms: _353  and  _354
REMARK  138  A    between atoms: _357  and  _359
REMARK  139  A    between atoms: _359  and  _360
REMARK  140  A    between atoms: _359  and  _362
REMARK  141  A    between atoms: _362  and  _363
REMARK  142  A    between atoms: _363  and  _364
REMARK  143  A    between atoms: _364  and  _365
REMARK  144  A    between atoms: _374  and  _376
REMARK  145  A    between atoms: _376  and  _377
REMARK  146  A    between atoms: _376  and  _379
REMARK  147  A    between atoms: _379  and  _380
REMARK  148  A    between atoms: _385  and  _386
REMARK  149  A    between atoms: _388  and  _390
REMARK  150  A    between atoms: _390  and  _391
REMARK  151  A    between atoms: _390  and  _393
REMARK  152  A    between atoms: _393  and  _394
REMARK  153  A    between atoms: _396  and  _398
REMARK  154  A    between atoms: _398  and  _399
REMARK  155  A    between atoms: _398  and  _401
REMARK  156  A    between atoms: _401  and  _402
REMARK                            x       y       z     vdW  Elec       q    Type
REMARK                         _______ _______ _______ _____ _____    ______ ____
ROOT
ATOM      1  CA  SER A   1      42.774  20.845   6.510  0.00  0.00    +0.163 C 
ENDROOT
BRANCH   1   2
ATOM      2  N   SER A   1      43.663  21.668   5.679  0.00  0.00    -0.237 NA
ATOM      3  H   SER A   1      43.690  21.512   4.651  0.00  0.00    +0.142 HD
ENDBRANCH   1   2
BRANCH   1   4
ATOM      4  CB  SER A   1      42.846  19.387   6.084  0.00  0.00    +0.227 C 
ATOM      5  OG  SER A   1      42.883  19.098   4.888  0.00  0.00    -0.287 OA
ENDBRANCH   1   4
BRANCH   1   6
ATOM      6  C   SER A   1      41.320  21.292   6.352  0.00  0.00    +0.162 C 
BRANCH   6   7
ATOM      7  O   SER A   1      40.482  20.450   7.134  0.00  0.00    -0.380 OA
ATOM      8  H   SER A   1      40.748  20.514   8.086  0.00  0.00    +0.211 HD
ENDBRANCH   6   7
ENDBRANCH   1   6
TORSDOF 4
REMARK  Name = ../refined-set-2016/1toj/1toj_pocket.pdb
REMARK  156 active torsions:
REMARK  status: ('A' for Active; 'I' for Inactive)
REMARK    1  A    between atoms: _1  and  _3
REMARK    2  A    between atoms: _3  and  _4
REMARK    3  A    between atoms: _3  and  _6
REMARK    4  A    between atoms: _6  and  _7
REMARK    5  A    between atoms: _11  and  _12
REMARK    6  A    between atoms: _17  and  _19
REMARK    7  A    between atoms: _19  and  _20
REMARK    8  A    between atoms: _19  and  _22
REMARK    9  A    between atoms: _22  and  _23
REMARK   10  A    between atoms: _26  and  _28
REMARK   11  A    between atoms: _28  and  _29
REMARK   12  A    between atoms: _28  and  _31
REMARK   13  A    between atoms: _31  and  _32
REMARK   14  A    between atoms: _35  and  _37
REMARK   15  A    between atoms: _37  and  _38
REMARK   16  A    between atoms: _40  and  _42
REMARK   17  A    between atoms: _42  and  _43
REMARK   18  A    between atoms: _42  and  _45
REMARK   19  A    between atoms: _45  and  _46
REMARK   20  A    between atoms: _49  and  _51
REMARK   21  A    between atoms: _51  and  _52
REMARK   22  A    between atoms: _51  and  _54
REMARK   23  A    between atoms: _54  and  _55
REMARK   24  A    between atoms: _58  and  _60
REMARK   25  A    between atoms: _60  and  _61
REMARK   26  A    between atoms: _63  and  _65
REMARK   27  A    between atoms: _65  and  _66
REMARK   28  A    between atoms: _65  and  _68
REMARK   29  A    between atoms: _68  and  _69
REMARK   30  A    between atoms: _72  and  _74
REMARK   31  A    between atoms: _74  and  _75
REMARK   32  A    between atoms: _77  and  _79
REMARK   33  A    between atoms: _79  and  _80
REMARK   34  A    between atoms: _79  and  _82
REMARK   35  A    between atoms: _85  and  _87
REMARK   36  A    between atoms: _87  and  _88
REMARK   37  A    between atoms: _90  and  _92
REMARK   38  A    between atoms: _92  and  _93
REMARK   39  A    between atoms: _92  and  _95
REMARK   40  A    between atoms: _95  and  _96
REMARK   41  A    between atoms: _98  and  _100
REMARK   42  A    between atoms: _100  and  _101
REMARK   43  A    between atoms: _103  and  _105
REMARK   44  A    between atoms: _105  and  _106
REMARK   45  A    between atoms: _105  and  _108
REMARK   46  A    between atoms: _108  and  _109
REMARK   47  A    between atoms: _112  and  _114
REMARK   48  A    between atoms: _114  and  _115
REMARK   49  A    between atoms: _114  and  _117
REMARK   50  A    between atoms: _117  and  _118
REMARK   51  A    between atoms: _120  and  _122
REMARK   52  A    between atoms: _122  and  _123
REMARK   53  A    between atoms: _122  and  _125
REMARK   54  A    between atoms: _125  and  _126
REMARK   55  A    between atoms: _137  and  _138
REMARK   56  A    between atoms: _143  and  _145
REMARK   57  A    between atoms: _145  and  _146
REMARK   58  A    between atoms: _145  and  _148
REMARK   59  A    between atoms: _148  and  _149
REMARK   60  A    between atoms: _154  and  _156
REMARK   61  A    between atoms: _156  and  _157
REMARK   62  A    between atoms: _156  and  _159
REMARK   63  A    between atoms: _159  and  _160
REMARK   64  A    between atoms: _165  and  _167
REMARK   65  A    between atoms: _167  and  _168
REMARK   66  A    between atoms: _167  and  _170
REMARK   67  A    between atoms: _170  and  _171
REMARK   68  A    between atoms: _177  and  _178
REMARK   69  A    between atoms: _183  and  _185
REMARK   70  A    between atoms: _185  and  _186
REMARK   71  A    between atoms: _189  and  _191
REMARK   72  A    between atoms: _191  and  _192
REMARK   73  A    between atoms: _191  and  _194
REMARK   74  A    between atoms: _194  and  _195
REMARK   75  A    between atoms: _200  and  _201
REMARK   76  A    between atoms: _203  and  _205
REMARK   77  A    between atoms: _205  and  _206
REMARK   78  A    between atoms: _205  and  _208
REMARK   79  A    between atoms: _208  and  _209
REMARK   80  A    between atoms: _211  and  _213
REMARK   81  A    between atoms: _213  and  _214
REMARK   82  A    between atoms: _213  and  _216
REMARK   83  A    between atoms: _216  and  _217
REMARK   84  A    between atoms: _224  and  _225
REMARK   85  A    between atoms: _225  and  _241
REMARK   86  A    between atoms: _226  and  _228
REMARK   87  A    between atoms: _228  and  _229
REMARK   88  A    between atoms: _229  and  _230
REMARK   89  A    between atoms: _234  and  _236
REMARK   90  A    between atoms: _236  and  _237
REMARK   91  A    between atoms: _236  and  _244
REMARK   92  A    between atoms: _237  and  _238
REMARK   93  A    between atoms: _238  and  _239
REMARK   94  A    between atoms: _239  and  _240
REMARK   95  A    between atoms: _240  and  _241
REMARK   96  A    between atoms: _246  and  _248
REMARK   97  A    between atoms: _248  and  _249
REMARK   98  A    between atoms: _248  and  _251
REMARK   99  A    between atoms: _251  and  _252
REMARK  100  A    between atoms: _257  and  _258
REMARK  101  A    between atoms: _260  and  _262
REMARK  102  A    between atoms: _262  and  _263
REMARK  103  A    between atoms: _262  and  _265
REMARK  104  A    between atoms: _265  and  _266
REMARK  105  A    between atoms: _266  and  _267
REMARK  106  A    between atoms: _267  and  _268
REMARK  107  A    between atoms: _277  and  _279
REMARK  108  A    between atoms: _279  and  _280
REMARK  109  A    between atoms: _279  and  _282
REMARK  110  A    between atoms: _282  and  _283
REMARK  111  A    between atoms: _283  and  _284
REMARK  112  A    between atoms: _286  and  _288
REMARK  113  A    between atoms: _288  and  _289
REMARK  114  A    between atoms: _288  and  _291
REMARK  115  A    between atoms: _291  and  _292
REMARK  116  A    between atoms: _298  and  _300
REMARK  117  A    between atoms: _300  and  _301
REMARK  118  A    between atoms: _300  and  _303
REMARK  119  A    between atoms: _306  and  _308
REMARK  120  A    between atoms: _308  and  _309
REMARK  121  A    between atoms: _308  and  _311
REMARK  122  A    between atoms: _311  and  _312
REMARK  123  A    between atoms: _312  and  _313
REMARK  124  A    between atoms: _313  and  _314
REMARK  125  A    between atoms: _323  and  _325
REMARK  126  A    between atoms: _325  and  _326
REMARK  127  A    between atoms: _325  and  _328
REMARK  128  A    between atoms: _328  and  _329
REMARK  129  A    between atoms: _334  and  _336
REMARK  130  A    between atoms: _336  and  _337
REMARK  131  A    between atoms: _336  and  _339
REMARK  132  A    between atoms: _339  and  _340
REMARK  133  A    between atoms: _345  and  _346
REMARK  134  A    between atoms: _348  and  _350
REMARK  135  A    between atoms: _350  and  _351
REMARK  136  A    between atoms: _350  and  _353
REMARK  137  A    between atoms: _353  and  _354
REMARK  138  A    between atoms: _357  and  _359
REMARK  139  A    between atoms: _359  and  _360
REMARK  140  A    between atoms: _359  and  _362
REMARK  141  A    between atoms: _362  and  _363
REMARK  142  A    between atoms: _363  and  _364
REMARK  143  A    between atoms: _364  and  _365
REMARK  144  A    between atoms: _374  and  _376
REMARK  145  A    between atoms: _376  and  _377
REMARK  146  A    between atoms: _376  and  _379
REMARK  147  A    between atoms: _379  and  _380
REMARK  148  A    between atoms: _385  and  _386
REMARK  149  A    between atoms: _388  and  _390
REMARK  150  A    between atoms: _390  and  _391
REMARK  151  A    between atoms: _390  and  _393
REMARK  152  A    between atoms: _393  and  _394
REMARK  153  A    between atoms: _396  and  _398
REMARK  154  A    between atoms: _398  and  _399
REMARK  155  A    between atoms: _398  and  _401
REMARK  156  A    between atoms: _401  and  _402
REMARK                            x       y       z     vdW  Elec       q    Type
REMARK                         _______ _______ _______ _____ _____    ______ ____
ROOT
ATOM      1  N   UNK A   2      35.817  21.977   4.355  0.00  0.00    +0.384 N 
ATOM      2  H   UNK A   2      36.530  21.976   3.598  0.00  0.00    -0.084 HD
ATOM      3  H   UNK A   2      34.947  22.430   4.009  0.00  0.00    -0.084 HD
ENDROOT
BRANCH   1   4
ATOM      4  C   UNK A   2      36.276  22.627   5.403  0.00  0.00    -0.070 C 
BRANCH   4   5
ATOM      5  C   UNK A   2      36.782  24.013   5.098  0.00  0.00    +0.064 C 
ATOM      6  C   UNK A   2      37.793  24.528   5.927  0.00  0.00    +0.010 C 
ATOM      7  C   UNK A   2      38.304  25.808   5.732  0.00  0.00    +0.093 C 
ATOM      8  N   UNK A   2      37.826  26.574   4.689  0.00  0.00    -0.246 NA
ATOM      9  C   UNK A   2      36.851  26.084   3.850  0.00  0.00    +0.094 C 
ATOM     10  C   UNK A   2      36.406  26.979   2.715  0.00  0.00    +0.055 C 
ATOM     11  C   UNK A   2      36.309  24.801   4.035  0.00  0.00    +0.188 C 
ATOM     12  O   UNK A   2      35.415  24.402   3.269  0.00  0.00    -0.290 OA
BRANCH   6  13
ATOM     13  C   UNK A   2      38.371  23.722   7.059  0.00  0.00    +0.178 C 
BRANCH  13  14
ATOM     14  O   UNK A   2      37.490  23.151   8.045  0.00  0.00    -0.266 OA
BRANCH  14  15
ATOM     15  P   UNK A   2      38.156  22.461   9.328  0.00  0.00    +0.533 P 
ATOM     16  O   UNK A   2      37.213  21.363   9.605  0.00  0.00    -0.115 OA
ATOM     17  O   UNK A   2      38.228  23.561  10.341  0.00  0.00    -0.115 OA
ATOM     18  O   UNK A   2      39.481  21.965   8.911  0.00  0.00    -0.222 OA
ENDBRANCH  14  15
ENDBRANCH  13  14
ENDBRANCH   6  13
ENDBRANCH   4   5
ENDBRANCH   1   4
BRANCH   1  19
ATOM     19  C   UNK A   2      35.524  20.566   4.786  0.00  0.00    -0.082 C 
BRANCH  19  20
ATOM     20  C   UNK A   2      36.661  19.614   4.360  0.00  0.00    -0.023 C 
BRANCH  20  21
ATOM     21  C   UNK A   2      36.081  18.295   3.933  0.00  0.00    -0.000 C 
BRANCH  21  22
ATOM     22  C   UNK A   2      37.173  17.377   3.376  0.00  0.00    +0.028 C 
BRANCH  22  23
ATOM     23  C   UNK A   2      37.555  16.280   4.377  0.00  0.00    +0.137 C 
BRANCH  23  26
ATOM     24  C   SER A   1      38.173  16.387   6.709  0.00  0.00    +0.241 C 
ATOM     25  O   SER A   1      37.455  15.427   6.995  0.00  0.00    -0.274 OA
ATOM     26  N   UNK A   2      38.347  16.821   5.462  0.00  0.00    -0.298 N 
ATOM     27  H   UNK A   2      39.058  17.555   5.266  0.00  0.00    +0.150 HD
BRANCH  24  28
ATOM     28  CA  SER A   1      38.887  17.173   7.803  0.00  0.00    +0.174 C 
BRANCH  28  29
ATOM     29  N   SER A   1      40.283  17.507   7.474  0.00  0.00    -0.236 NA
ATOM     30  H   SER A   1      40.584  18.502   7.515  0.00  0.00    +0.142 HD
ENDBRANCH  28  29
BRANCH  28  31
ATOM     31  CB  SER A   1      38.076  18.444   8.105  0.00  0.00    +0.163 C 
BRANCH  31  32
ATOM     32  OG  SER A   1      38.445  18.962   9.372  0.00  0.00    -0.380 OA
ATOM     33  H   SER A   1      37.919  19.780   9.559  0.00  0.00    +0.211 HD
ENDBRANCH  31  32
ENDBRANCH  28  31
ENDBRANCH  24  28
ENDBRANCH  23  26
BRANCH  23  34
ATOM     34  C   UNK A   2      38.287  15.122   3.713  0.00  0.00    +0.227 C 
ATOM     35  O   UNK A   2      37.707  14.043   3.513  0.00  0.00    -0.286 OA
ENDBRANCH  23  34
ENDBRANCH  22  23
ENDBRANCH  21  22
ENDBRANCH  20  21
ENDBRANCH  19  20
ENDBRANCH   1  19
TORSDOF 16
REMARK  Name = ../refined-set-2016/1toj/1toj_pocket.pdb
REMARK  156 active torsions:
REMARK  status: ('A' for Active; 'I' for Inactive)
REMARK    1  A    between atoms: _1  and  _3
REMARK    2  A    between atoms: _3  and  _4
REMARK    3  A    between atoms: _3  and  _6
REMARK    4  A    between atoms: _6  and  _7
REMARK    5  A    between atoms: _11  and  _12
REMARK    6  A    between atoms: _17  and  _19
REMARK    7  A    between atoms: _19  and  _20
REMARK    8  A    between atoms: _19  and  _22
REMARK    9  A    between atoms: _22  and  _23
REMARK   10  A    between atoms: _26  and  _28
REMARK   11  A    between atoms: _28  and  _29
REMARK   12  A    between atoms: _28  and  _31
REMARK   13  A    between atoms: _31  and  _32
REMARK   14  A    between atoms: _35  and  _37
REMARK   15  A    between atoms: _37  and  _38
REMARK   16  A    between atoms: _40  and  _42
REMARK   17  A    between atoms: _42  and  _43
REMARK   18  A    between atoms: _42  and  _45
REMARK   19  A    between atoms: _45  and  _46
REMARK   20  A    between atoms: _49  and  _51
REMARK   21  A    between atoms: _51  and  _52
REMARK   22  A    between atoms: _51  and  _54
REMARK   23  A    between atoms: _54  and  _55
REMARK   24  A    between atoms: _58  and  _60
REMARK   25  A    between atoms: _60  and  _61
REMARK   26  A    between atoms: _63  and  _65
REMARK   27  A    between atoms: _65  and  _66
REMARK   28  A    between atoms: _65  and  _68
REMARK   29  A    between atoms: _68  and  _69
REMARK   30  A    between atoms: _72  and  _74
REMARK   31  A    between atoms: _74  and  _75
REMARK   32  A    between atoms: _77  and  _79
REMARK   33  A    between atoms: _79  and  _80
REMARK   34  A    between atoms: _79  and  _82
REMARK   35  A    between atoms: _85  and  _87
REMARK   36  A    between atoms: _87  and  _88
REMARK   37  A    between atoms: _90  and  _92
REMARK   38  A    between atoms: _92  and  _93
REMARK   39  A    between atoms: _92  and  _95
REMARK   40  A    between atoms: _95  and  _96
REMARK   41  A    between atoms: _98  and  _100
REMARK   42  A    between atoms: _100  and  _101
REMARK   43  A    between atoms: _103  and  _105
REMARK   44  A    between atoms: _105  and  _106
REMARK   45  A    between atoms: _105  and  _108
REMARK   46  A    between atoms: _108  and  _109
REMARK   47  A    between atoms: _112  and  _114
REMARK   48  A    between atoms: _114  and  _115
REMARK   49  A    between atoms: _114  and  _117
REMARK   50  A    between atoms: _117  and  _118
REMARK   51  A    between atoms: _120  and  _122
REMARK   52  A    between atoms: _122  and  _123
REMARK   53  A    between atoms: _122  and  _125
REMARK   54  A    between atoms: _125  and  _126
REMARK   55  A    between atoms: _137  and  _138
REMARK   56  A    between atoms: _143  and  _145
REMARK   57  A    between atoms: _145  and  _146
REMARK   58  A    between atoms: _145  and  _148
REMARK   59  A    between atoms: _148  and  _149
REMARK   60  A    between atoms: _154  and  _156
REMARK   61  A    between atoms: _156  and  _157
REMARK   62  A    between atoms: _156  and  _159
REMARK   63  A    between atoms: _159  and  _160
REMARK   64  A    between atoms: _165  and  _167
REMARK   65  A    between atoms: _167  and  _168
REMARK   66  A    between atoms: _167  and  _170
REMARK   67  A    between atoms: _170  and  _171
REMARK   68  A    between atoms: _177  and  _178
REMARK   69  A    between atoms: _183  and  _185
REMARK   70  A    between atoms: _185  and  _186
REMARK   71  A    between atoms: _189  and  _191
REMARK   72  A    between atoms: _191  and  _192
REMARK   73  A    between atoms: _191  and  _194
REMARK   74  A    between atoms: _194  and  _195
REMARK   75  A    between atoms: _200  and  _201
REMARK   76  A    between atoms: _203  and  _205
REMARK   77  A    between atoms: _205  and  _206
REMARK   78  A    between atoms: _205  and  _208
REMARK   79  A    between atoms: _208  and  _209
REMARK   80  A    between atoms: _211  and  _213
REMARK   81  A    between atoms: _213  and  _214
REMARK   82  A    between atoms: _213  and  _216
REMARK   83  A    between atoms: _216  and  _217
REMARK   84  A    between atoms: _224  and  _225
REMARK   85  A    between atoms: _225  and  _241
REMARK   86  A    between atoms: _226  and  _228
REMARK   87  A    between atoms: _228  and  _229
REMARK   88  A    between atoms: _229  and  _230
REMARK   89  A    between atoms: _234  and  _236
REMARK   90  A    between atoms: _236  and  _237
REMARK   91  A    between atoms: _236  and  _244
REMARK   92  A    between atoms: _237  and  _238
REMARK   93  A    between atoms: _238  and  _239
REMARK   94  A    between atoms: _239  and  _240
REMARK   95  A    between atoms: _240  and  _241
REMARK   96  A    between atoms: _246  and  _248
REMARK   97  A    between atoms: _248  and  _249
REMARK   98  A    between atoms: _248  and  _251
REMARK   99  A    between atoms: _251  and  _252
REMARK  100  A    between atoms: _257  and  _258
REMARK  101  A    between atoms: _260  and  _262
REMARK  102  A    between atoms: _262  and  _263
REMARK  103  A    between atoms: _262  and  _265
REMARK  104  A    between atoms: _265  and  _266
REMARK  105  A    between atoms: _266  and  _267
REMARK  106  A    between atoms: _267  and  _268
REMARK  107  A    between atoms: _277  and  _279
REMARK  108  A    between atoms: _279  and  _280
REMARK  109  A    between atoms: _279  and  _282
REMARK  110  A    between atoms: _282  and  _283
REMARK  111  A    between atoms: _283  and  _284
REMARK  112  A    between atoms: _286  and  _288
REMARK  113  A    between atoms: _288  and  _289
REMARK  114  A    between atoms: _288  and  _291
REMARK  115  A    between atoms: _291  and  _292
REMARK  116  A    between atoms: _298  and  _300
REMARK  117  A    between atoms: _300  and  _301
REMARK  118  A    between atoms: _300  and  _303
REMARK  119  A    between atoms: _306  and  _308
REMARK  120  A    between atoms: _308  and  _309
REMARK  121  A    between atoms: _308  and  _311
REMARK  122  A    between atoms: _311  and  _312
REMARK  123  A    between atoms: _312  and  _313
REMARK  124  A    between atoms: _313  and  _314
REMARK  125  A    between atoms: _323  and  _325
REMARK  126  A    between atoms: _325  and  _326
REMARK  127  A    between atoms: _325  and  _328
REMARK  128  A    between atoms: _328  and  _329
REMARK  129  A    between atoms: _334  and  _336
REMARK  130  A    between atoms: _336  and  _337
REMARK  131  A    between atoms: _336  and  _339
REMARK  132  A    between atoms: _339  and  _340
REMARK  133  A    between atoms: _345  and  _346
REMARK  134  A    between atoms: _348  and  _350
REMARK  135  A    between atoms: _350  and  _351
REMARK  136  A    between atoms: _350  and  _353
REMARK  137  A    between atoms: _353  and  _354
REMARK  138  A    between atoms: _357  and  _359
REMARK  139  A    between atoms: _359  and  _360
REMARK  140  A    between atoms: _359  and  _362
REMARK  141  A    between atoms: _362  and  _363
REMARK  142  A    between atoms: _363  and  _364
REMARK  143  A    between atoms: _364  and  _365
REMARK  144  A    between atoms: _374  and  _376
REMARK  145  A    between atoms: _376  and  _377
REMARK  146  A    between atoms: _376  and  _379
REMARK  147  A    between atoms: _379  and  _380
REMARK  148  A    between atoms: _385  and  _386
REMARK  149  A    between atoms: _388  and  _390
REMARK  150  A    between atoms: _390  and  _391
REMARK  151  A    between atoms: _390  and  _393
REMARK  152  A    between atoms: _393  and  _394
REMARK  153  A    between atoms: _396  and  _398
REMARK  154  A    between atoms: _398  and  _399
REMARK  155  A    between atoms: _398  and  _401
REMARK  156  A    between atoms: _401  and  _402
REMARK                            x       y       z     vdW  Elec       q    Type
REMARK                         _______ _______ _______ _____ _____    ______ ____
ROOT
ATOM      1  CG  TYR A   1      34.315  15.805   8.928  0.00  0.00    -0.020 A 
ATOM      2  CD2 TYR A   1      33.950  14.465   8.840  0.00  0.00    -0.001 A 
ATOM      3  CE2 TYR A   1      33.697  13.864   7.588  0.00  0.00    +0.036 A 
ATOM      4  CZ  TYR A   1      33.814  14.634   6.438  0.00  0.00    +0.134 A 
ATOM      5  CE1 TYR A   1      34.177  15.954   6.513  0.00  0.00    +0.036 A 
ATOM      6  CD1 TYR A   1      34.409  16.538   7.754  0.00  0.00    -0.001 A 
ENDROOT
BRANCH   4   7
ATOM      7  OH  TYR A   1      33.576  14.094   5.191  0.00  0.00    -0.506 OA
ATOM      8  HH  TYR A   1      34.204  13.346   5.031  0.00  0.00    +0.292 HD
ENDBRANCH   4   7
BRANCH   1   9
ATOM      9  CB  TYR A   1      34.613  16.457  10.275  0.00  0.00    +0.051 C 
BRANCH   9  10
ATOM     10  CA  TYR A   1      36.103  16.386  10.684  0.00  0.00    +0.137 C 
BRANCH  10  11
ATOM     11  N   TYR A   1      36.659  15.060  10.352  0.00  0.00    -0.239 NA
ATOM     12  H   TYR A   1      36.128  14.456   9.693  0.00  0.00    +0.142 HD
ENDBRANCH  10  11
BRANCH  10  13
ATOM     13  C   TYR A   1      36.212  16.720  12.174  0.00  0.00    +0.224 C 
ATOM     14  O   TYR A   1      36.749  17.771  12.542  0.00  0.00    -0.287 OA
ENDBRANCH  10  13
ENDBRANCH   9  10
ENDBRANCH   1   9
TORSDOF 5
REMARK  Name = ../refined-set-2016/1toj/1toj_pocket.pdb
REMARK  156 active torsions:
REMARK  status: ('A' for Active; 'I' for Inactive)
REMARK    1  A    between atoms: _1  and  _3
REMARK    2  A    between atoms: _3  and  _4
REMARK    3  A    between atoms: _3  and  _6
REMARK    4  A    between atoms: _6  and  _7
REMARK    5  A    between atoms: _11  and  _12
REMARK    6  A    between atoms: _17  and  _19
REMARK    7  A    between atoms: _19  and  _20
REMARK    8  A    between atoms: _19  and  _22
REMARK    9  A    between atoms: _22  and  _23
REMARK   10  A    between atoms: _26  and  _28
REMARK   11  A    between atoms: _28  and  _29
REMARK   12  A    between atoms: _28  and  _31
REMARK   13  A    between atoms: _31  and  _32
REMARK   14  A    between atoms: _35  and  _37
REMARK   15  A    between atoms: _37  and  _38
REMARK   16  A    between atoms: _40  and  _42
REMARK   17  A    between atoms: _42  and  _43
REMARK   18  A    between atoms: _42  and  _45
REMARK   19  A    between atoms: _45  and  _46
REMARK   20  A    between atoms: _49  and  _51
REMARK   21  A    between atoms: _51  and  _52
REMARK   22  A    between atoms: _51  and  _54
REMARK   23  A    between atoms: _54  and  _55
REMARK   24  A    between atoms: _58  and  _60
REMARK   25  A    between atoms: _60  and  _61
REMARK   26  A    between atoms: _63  and  _65
REMARK   27  A    between atoms: _65  and  _66
REMARK   28  A    between atoms: _65  and  _68
REMARK   29  A    between atoms: _68  and  _69
REMARK   30  A    between atoms: _72  and  _74
REMARK   31  A    between atoms: _74  and  _75
REMARK   32  A    between atoms: _77  and  _79
REMARK   33  A    between atoms: _79  and  _80
REMARK   34  A    between atoms: _79  and  _82
REMARK   35  A    between atoms: _85  and  _87
REMARK   36  A    between atoms: _87  and  _88
REMARK   37  A    between atoms: _90  and  _92
REMARK   38  A    between atoms: _92  and  _93
REMARK   39  A    between atoms: _92  and  _95
REMARK   40  A    between atoms: _95  and  _96
REMARK   41  A    between atoms: _98  and  _100
REMARK   42  A    between atoms: _100  and  _101
REMARK   43  A    between atoms: _103  and  _105
REMARK   44  A    between atoms: _105  and  _106
REMARK   45  A    between atoms: _105  and  _108
REMARK   46  A    between atoms: _108  and  _109
REMARK   47  A    between atoms: _112  and  _114
REMARK   48  A    between atoms: _114  and  _115
REMARK   49  A    between atoms: _114  and  _117
REMARK   50  A    between atoms: _117  and  _118
REMARK   51  A    between atoms: _120  and  _122
REMARK   52  A    between atoms: _122  and  _123
REMARK   53  A    between atoms: _122  and  _125
REMARK   54  A    between atoms: _125  and  _126
REMARK   55  A    between atoms: _137  and  _138
REMARK   56  A    between atoms: _143  and  _145
REMARK   57  A    between atoms: _145  and  _146
REMARK   58  A    between atoms: _145  and  _148
REMARK   59  A    between atoms: _148  and  _149
REMARK   60  A    between atoms: _154  and  _156
REMARK   61  A    between atoms: _156  and  _157
REMARK   62  A    between atoms: _156  and  _159
REMARK   63  A    between atoms: _159  and  _160
REMARK   64  A    between atoms: _165  and  _167
REMARK   65  A    between atoms: _167  and  _168
REMARK   66  A    between atoms: _167  and  _170
REMARK   67  A    between atoms: _170  and  _171
REMARK   68  A    between atoms: _177  and  _178
REMARK   69  A    between atoms: _183  and  _185
REMARK   70  A    between atoms: _185  and  _186
REMARK   71  A    between atoms: _189  and  _191
REMARK   72  A    between atoms: _191  and  _192
REMARK   73  A    between atoms: _191  and  _194
REMARK   74  A    between atoms: _194  and  _195
REMARK   75  A    between atoms: _200  and  _201
REMARK   76  A    between atoms: _203  and  _205
REMARK   77  A    between atoms: _205  and  _206
REMARK   78  A    between atoms: _205  and  _208
REMARK   79  A    between atoms: _208  and  _209
REMARK   80  A    between atoms: _211  and  _213
REMARK   81  A    between atoms: _213  and  _214
REMARK   82  A    between atoms: _213  and  _216
REMARK   83  A    between atoms: _216  and  _217
REMARK   84  A    between atoms: _224  and  _225
REMARK   85  A    between atoms: _225  and  _241
REMARK   86  A    between atoms: _226  and  _228
REMARK   87  A    between atoms: _228  and  _229
REMARK   88  A    between atoms: _229  and  _230
REMARK   89  A    between atoms: _234  and  _236
REMARK   90  A    between atoms: _236  and  _237
REMARK   91  A    between atoms: _236  and  _244
REMARK   92  A    between atoms: _237  and  _238
REMARK   93  A    between atoms: _238  and  _239
REMARK   94  A    between atoms: _239  and  _240
REMARK   95  A    between atoms: _240  and  _241
REMARK   96  A    between atoms: _246  and  _248
REMARK   97  A    between atoms: _248  and  _249
REMARK   98  A    between atoms: _248  and  _251
REMARK   99  A    between atoms: _251  and  _252
REMARK  100  A    between atoms: _257  and  _258
REMARK  101  A    between atoms: _260  and  _262
REMARK  102  A    between atoms: _262  and  _263
REMARK  103  A    between atoms: _262  and  _265
REMARK  104  A    between atoms: _265  and  _266
REMARK  105  A    between atoms: _266  and  _267
REMARK  106  A    between atoms: _267  and  _268
REMARK  107  A    between atoms: _277  and  _279
REMARK  108  A    between atoms: _279  and  _280
REMARK  109  A    between atoms: _279  and  _282
REMARK  110  A    between atoms: _282  and  _283
REMARK  111  A    between atoms: _283  and  _284
REMARK  112  A    between atoms: _286  and  _288
REMARK  113  A    between atoms: _288  and  _289
REMARK  114  A    between atoms: _288  and  _291
REMARK  115  A    between atoms: _291  and  _292
REMARK  116  A    between atoms: _298  and  _300
REMARK  117  A    between atoms: _300  and  _301
REMARK  118  A    between atoms: _300  and  _303
REMARK  119  A    between atoms: _306  and  _308
REMARK  120  A    between atoms: _308  and  _309
REMARK  121  A    between atoms: _308  and  _311
REMARK  122  A    between atoms: _311  and  _312
REMARK  123  A    between atoms: _312  and  _313
REMARK  124  A    between atoms: _313  and  _314
REMARK  125  A    between atoms: _323  and  _325
REMARK  126  A    between atoms: _325  and  _326
REMARK  127  A    between atoms: _325  and  _328
REMARK  128  A    between atoms: _328  and  _329
REMARK  129  A    between atoms: _334  and  _336
REMARK  130  A    between atoms: _336  and  _337
REMARK  131  A    between atoms: _336  and  _339
REMARK  132  A    between atoms: _339  and  _340
REMARK  133  A    between atoms: _345  and  _346
REMARK  134  A    between atoms: _348  and  _350
REMARK  135  A    between atoms: _350  and  _351
REMARK  136  A    between atoms: _350  and  _353
REMARK  137  A    between atoms: _353  and  _354
REMARK  138  A    between atoms: _357  and  _359
REMARK  139  A    between atoms: _359  and  _360
REMARK  140  A    between atoms: _359  and  _362
REMARK  141  A    between atoms: _362  and  _363
REMARK  142  A    between atoms: _363  and  _364
REMARK  143  A    between atoms: _364  and  _365
REMARK  144  A    between atoms: _374  and  _376
REMARK  145  A    between atoms: _376  and  _377
REMARK  146  A    between atoms: _376  and  _379
REMARK  147  A    between atoms: _379  and  _380
REMARK  148  A    between atoms: _385  and  _386
REMARK  149  A    between atoms: _388  and  _390
REMARK  150  A    between atoms: _390  and  _391
REMARK  151  A    between atoms: _390  and  _393
REMARK  152  A    between atoms: _393  and  _394
REMARK  153  A    between atoms: _396  and  _398
REMARK  154  A    between atoms: _398  and  _399
REMARK  155  A    between atoms: _398  and  _401
REMARK  156  A    between atoms: _401  and  _402
REMARK                            x       y       z     vdW  Elec       q    Type
REMARK                         _______ _______ _______ _____ _____    ______ ____
ROOT
ATOM      1  NE  ARG A   1      37.469  21.288  14.629  0.00  0.00    -0.265 N 
ATOM      2  HE  ARG A   1      37.426  22.061  15.323  0.00  0.00    +0.259 HD
ATOM      3  CZ  ARG A   1      37.573  21.610  13.337  0.00  0.00    +0.342 C 
ATOM      4  NH2 ARG A   1      37.662  22.883  12.979  0.00  0.00    -0.292 N 
ATOM      5 HH21 ARG A   1      37.651  23.629  13.704  0.00  0.00    +0.255 HD
ATOM      6 HH22 ARG A   1      37.743  23.136  11.973  0.00  0.00    +0.255 HD
ATOM      7  NH1 ARG A   1      37.602  20.665  12.403  0.00  0.00    -0.292 N 
ATOM      8 HH11 ARG A   1      37.543  19.663  12.675  0.00  0.00    +0.255 HD
ATOM      9 HH12 ARG A   1      37.683  20.928  11.400  0.00  0.00    +0.255 HD
ENDROOT
BRANCH   1  10
ATOM     10  CD  ARG A   1      37.412  19.910  15.129  0.00  0.00    +0.174 C 
BRANCH  10  11
ATOM     11  CG  ARG A   1      38.596  19.648  16.094  0.00  0.00    +0.045 C 
BRANCH  11  12
ATOM     12  CB  ARG A   1      39.982  19.824  15.474  0.00  0.00    +0.029 C 
BRANCH  12  13
ATOM     13  CA  ARG A   1      40.227  18.930  14.237  0.00  0.00    +0.133 C 
BRANCH  13  14
ATOM     14  N   ARG A   1      39.634  17.587  14.397  0.00  0.00    -0.239 NA
ATOM     15  H   ARG A   1      38.829  17.336  13.789  0.00  0.00    +0.142 HD
ENDBRANCH  13  14
BRANCH  13  16
ATOM     16  C   ARG A   1      41.696  18.843  13.850  0.00  0.00    +0.224 C 
ATOM     17  O   ARG A   1      42.590  19.135  14.649  0.00  0.00    -0.287 OA
ENDBRANCH  13  16
ENDBRANCH  12  13
ENDBRANCH  11  12
ENDBRANCH  10  11
ENDBRANCH   1  10
TORSDOF 6
REMARK  Name = ../refined-set-2016/1toj/1toj_pocket.pdb
REMARK  156 active torsions:
REMARK  status: ('A' for Active; 'I' for Inactive)
REMARK    1  A    between atoms: _1  and  _3
REMARK    2  A    between atoms: _3  and  _4
REMARK    3  A    between atoms: _3  and  _6
REMARK    4  A    between atoms: _6  and  _7
REMARK    5  A    between atoms: _11  and  _12
REMARK    6  A    between atoms: _17  and  _19
REMARK    7  A    between atoms: _19  and  _20
REMARK    8  A    between atoms: _19  and  _22
REMARK    9  A    between atoms: _22  and  _23
REMARK   10  A    between atoms: _26  and  _28
REMARK   11  A    between atoms: _28  and  _29
REMARK   12  A    between atoms: _28  and  _31
REMARK   13  A    between atoms: _31  and  _32
REMARK   14  A    between atoms: _35  and  _37
REMARK   15  A    between atoms: _37  and  _38
REMARK   16  A    between atoms: _40  and  _42
REMARK   17  A    between atoms: _42  and  _43
REMARK   18  A    between atoms: _42  and  _45
REMARK   19  A    between atoms: _45  and  _46
REMARK   20  A    between atoms: _49  and  _51
REMARK   21  A    between atoms: _51  and  _52
REMARK   22  A    between atoms: _51  and  _54
REMARK   23  A    between atoms: _54  and  _55
REMARK   24  A    between atoms: _58  and  _60
REMARK   25  A    between atoms: _60  and  _61
REMARK   26  A    between atoms: _63  and  _65
REMARK   27  A    between atoms: _65  and  _66
REMARK   28  A    between atoms: _65  and  _68
REMARK   29  A    between atoms: _68  and  _69
REMARK   30  A    between atoms: _72  and  _74
REMARK   31  A    between atoms: _74  and  _75
REMARK   32  A    between atoms: _77  and  _79
REMARK   33  A    between atoms: _79  and  _80
REMARK   34  A    between atoms: _79  and  _82
REMARK   35  A    between atoms: _85  and  _87
REMARK   36  A    between atoms: _87  and  _88
REMARK   37  A    between atoms: _90  and  _92
REMARK   38  A    between atoms: _92  and  _93
REMARK   39  A    between atoms: _92  and  _95
REMARK   40  A    between atoms: _95  and  _96
REMARK   41  A    between atoms: _98  and  _100
REMARK   42  A    between atoms: _100  and  _101
REMARK   43  A    between atoms: _103  and  _105
REMARK   44  A    between atoms: _105  and  _106
REMARK   45  A    between atoms: _105  and  _108
REMARK   46  A    between atoms: _108  and  _109
REMARK   47  A    between atoms: _112  and  _114
REMARK   48  A    between atoms: _114  and  _115
REMARK   49  A    between atoms: _114  and  _117
REMARK   50  A    between atoms: _117  and  _118
REMARK   51  A    between atoms: _120  and  _122
REMARK   52  A    between atoms: _122  and  _123
REMARK   53  A    between atoms: _122  and  _125
REMARK   54  A    between atoms: _125  and  _126
REMARK   55  A    between atoms: _137  and  _138
REMARK   56  A    between atoms: _143  and  _145
REMARK   57  A    between atoms: _145  and  _146
REMARK   58  A    between atoms: _145  and  _148
REMARK   59  A    between atoms: _148  and  _149
REMARK   60  A    between atoms: _154  and  _156
REMARK   61  A    between atoms: _156  and  _157
REMARK   62  A    between atoms: _156  and  _159
REMARK   63  A    between atoms: _159  and  _160
REMARK   64  A    between atoms: _165  and  _167
REMARK   65  A    between atoms: _167  and  _168
REMARK   66  A    between atoms: _167  and  _170
REMARK   67  A    between atoms: _170  and  _171
REMARK   68  A    between atoms: _177  and  _178
REMARK   69  A    between atoms: _183  and  _185
REMARK   70  A    between atoms: _185  and  _186
REMARK   71  A    between atoms: _189  and  _191
REMARK   72  A    between atoms: _191  and  _192
REMARK   73  A    between atoms: _191  and  _194
REMARK   74  A    between atoms: _194  and  _195
REMARK   75  A    between atoms: _200  and  _201
REMARK   76  A    between atoms: _203  and  _205
REMARK   77  A    between atoms: _205  and  _206
REMARK   78  A    between atoms: _205  and  _208
REMARK   79  A    between atoms: _208  and  _209
REMARK   80  A    between atoms: _211  and  _213
REMARK   81  A    between atoms: _213  and  _214
REMARK   82  A    between atoms: _213  and  _216
REMARK   83  A    between atoms: _216  and  _217
REMARK   84  A    between atoms: _224  and  _225
REMARK   85  A    between atoms: _225  and  _241
REMARK   86  A    between atoms: _226  and  _228
REMARK   87  A    between atoms: _228  and  _229
REMARK   88  A    between atoms: _229  and  _230
REMARK   89  A    between atoms: _234  and  _236
REMARK   90  A    between atoms: _236  and  _237
REMARK   91  A    between atoms: _236  and  _244
REMARK   92  A    between atoms: _237  and  _238
REMARK   93  A    between atoms: _238  and  _239
REMARK   94  A    between atoms: _239  and  _240
REMARK   95  A    between atoms: _240  and  _241
REMARK   96  A    between atoms: _246  and  _248
REMARK   97  A    between atoms: _248  and  _249
REMARK   98  A    between atoms: _248  and  _251
REMARK   99  A    between atoms: _251  and  _252
REMARK  100  A    between atoms: _257  and  _258
REMARK  101  A    between atoms: _260  and  _262
REMARK  102  A    between atoms: _262  and  _263
REMARK  103  A    between atoms: _262  and  _265
REMARK  104  A    between atoms: _265  and  _266
REMARK  105  A    between atoms: _266  and  _267
REMARK  106  A    between atoms: _267  and  _268
REMARK  107  A    between atoms: _277  and  _279
REMARK  108  A    between atoms: _279  and  _280
REMARK  109  A    between atoms: _279  and  _282
REMARK  110  A    between atoms: _282  and  _283
REMARK  111  A    between atoms: _283  and  _284
REMARK  112  A    between atoms: _286  and  _288
REMARK  113  A    between atoms: _288  and  _289
REMARK  114  A    between atoms: _288  and  _291
REMARK  115  A    between atoms: _291  and  _292
REMARK  116  A    between atoms: _298  and  _300
REMARK  117  A    between atoms: _300  and  _301
REMARK  118  A    between atoms: _300  and  _303
REMARK  119  A    between atoms: _306  and  _308
REMARK  120  A    between atoms: _308  and  _309
REMARK  121  A    between atoms: _308  and  _311
REMARK  122  A    between atoms: _311  and  _312
REMARK  123  A    between atoms: _312  and  _313
REMARK  124  A    between atoms: _313  and  _314
REMARK  125  A    between atoms: _323  and  _325
REMARK  126  A    between atoms: _325  and  _326
REMARK  127  A    between atoms: _325  and  _328
REMARK  128  A    between atoms: _328  and  _329
REMARK  129  A    between atoms: _334  and  _336
REMARK  130  A    between atoms: _336  and  _337
REMARK  131  A    between atoms: _336  and  _339
REMARK  132  A    between atoms: _339  and  _340
REMARK  133  A    between atoms: _345  and  _346
REMARK  134  A    between atoms: _348  and  _350
REMARK  135  A    between atoms: _350  and  _351
REMARK  136  A    between atoms: _350  and  _353
REMARK  137  A    between atoms: _353  and  _354
REMARK  138  A    between atoms: _357  and  _359
REMARK  139  A    between atoms: _359  and  _360
REMARK  140  A    between atoms: _359  and  _362
REMARK  141  A    between atoms: _362  and  _363
REMARK  142  A    between atoms: _363  and  _364
REMARK  143  A    between atoms: _364  and  _365
REMARK  144  A    between atoms: _374  and  _376
REMARK  145  A    between atoms: _376  and  _377
REMARK  146  A    between atoms: _376  and  _379
REMARK  147  A    between atoms: _379  and  _380
REMARK  148  A    between atoms: _385  and  _386
REMARK  149  A    between atoms: _388  and  _390
REMARK  150  A    between atoms: _390  and  _391
REMARK  151  A    between atoms: _390  and  _393
REMARK  152  A    between atoms: _393  and  _394
REMARK  153  A    between atoms: _396  and  _398
REMARK  154  A    between atoms: _398  and  _399
REMARK  155  A    between atoms: _398  and  _401
REMARK  156  A    between atoms: _401  and  _402
REMARK                            x       y       z     vdW  Elec       q    Type
REMARK                         _______ _______ _______ _____ _____    ______ ____
ROOT
ATOM      1  C   MET A   1      30.107  19.107  -3.170  0.00  0.00    +0.238 C 
ATOM      2  O   MET A   1      29.071  18.489  -2.944  0.00  0.00    -0.274 OA
ATOM      3  N   PHE A   2      30.115  20.336  -3.684  0.00  0.00    -0.298 N 
ATOM      4  H   PHE A   2      31.006  20.744  -4.032  0.00  0.00    +0.150 HD
ENDROOT
BRANCH   1   5
ATOM      5  CA  MET A   1      31.451  18.478  -2.802  0.00  0.00    +0.146 C 
BRANCH   5   6
ATOM      6  N   MET A   1      32.621  19.135  -3.366  0.00  0.00    -0.238 NA
ATOM      7  H   MET A   1      33.096  19.894  -2.837  0.00  0.00    +0.142 HD
ENDBRANCH   5   6
BRANCH   5   8
ATOM      8  CB  MET A   1      31.580  18.424  -1.279  0.00  0.00    +0.038 C 
BRANCH   8   9
ATOM      9  CG  MET A   1      32.689  17.496  -0.805  0.00  0.00    +0.060 C 
BRANCH   9  10
ATOM     10  SD  MET A   1      32.481  17.180   0.948  0.00  0.00    -0.139 S 
ATOM     11  CE  MET A   1      34.053  16.416   1.319  0.00  0.00    +0.069 C 
ENDBRANCH   9  10
ENDBRANCH   8   9
ENDBRANCH   5   8
ENDBRANCH   1   5
BRANCH   3  12
ATOM     12  CA  PHE A   2      28.886  21.113  -3.762  0.00  0.00    +0.141 C 
BRANCH  12  13
ATOM     13  C   PHE A   2      28.421  21.383  -5.185  0.00  0.00    +0.227 C 
ATOM     14  O   PHE A   2      29.179  21.244  -6.149  0.00  0.00    -0.286 OA
ENDBRANCH  12  13
BRANCH  12  15
ATOM     15  CB  PHE A   2      29.040  22.467  -3.035  0.00  0.00    +0.054 C 
BRANCH  15  16
ATOM     16  CG  PHE A   2      29.559  22.350  -1.628  0.00  0.00    -0.020 A 
ATOM     17  CD2 PHE A   2      28.751  21.847  -0.620  0.00  0.00    -0.004 A 
ATOM     18  CE2 PHE A   2      29.221  21.762   0.693  0.00  0.00    -0.000 A 
ATOM     19  CZ  PHE A   2      30.528  22.169   0.999  0.00  0.00    -0.000 A 
ATOM     20  CE1 PHE A   2      31.344  22.687  -0.005  0.00  0.00    -0.000 A 
ATOM     21  CD1 PHE A   2      30.849  22.772  -1.313  0.00  0.00    -0.004 A 
ENDBRANCH  15  16
ENDBRANCH  12  15
ENDBRANCH   3  12
TORSDOF 9
REMARK  Name = ../refined-set-2016/1toj/1toj_pocket.pdb
REMARK  156 active torsions:
REMARK  status: ('A' for Active; 'I' for Inactive)
REMARK    1  A    between atoms: _1  and  _3
REMARK    2  A    between atoms: _3  and  _4
REMARK    3  A    between atoms: _3  and  _6
REMARK    4  A    between atoms: _6  and  _7
REMARK    5  A    between atoms: _11  and  _12
REMARK    6  A    between atoms: _17  and  _19
REMARK    7  A    between atoms: _19  and  _20
REMARK    8  A    between atoms: _19  and  _22
REMARK    9  A    between atoms: _22  and  _23
REMARK   10  A    between atoms: _26  and  _28
REMARK   11  A    between atoms: _28  and  _29
REMARK   12  A    between atoms: _28  and  _31
REMARK   13  A    between atoms: _31  and  _32
REMARK   14  A    between atoms: _35  and  _37
REMARK   15  A    between atoms: _37  and  _38
REMARK   16  A    between atoms: _40  and  _42
REMARK   17  A    between atoms: _42  and  _43
REMARK   18  A    between atoms: _42  and  _45
REMARK   19  A    between atoms: _45  and  _46
REMARK   20  A    between atoms: _49  and  _51
REMARK   21  A    between atoms: _51  and  _52
REMARK   22  A    between atoms: _51  and  _54
REMARK   23  A    between atoms: _54  and  _55
REMARK   24  A    between atoms: _58  and  _60
REMARK   25  A    between atoms: _60  and  _61
REMARK   26  A    between atoms: _63  and  _65
REMARK   27  A    between atoms: _65  and  _66
REMARK   28  A    between atoms: _65  and  _68
REMARK   29  A    between atoms: _68  and  _69
REMARK   30  A    between atoms: _72  and  _74
REMARK   31  A    between atoms: _74  and  _75
REMARK   32  A    between atoms: _77  and  _79
REMARK   33  A    between atoms: _79  and  _80
REMARK   34  A    between atoms: _79  and  _82
REMARK   35  A    between atoms: _85  and  _87
REMARK   36  A    between atoms: _87  and  _88
REMARK   37  A    between atoms: _90  and  _92
REMARK   38  A    between atoms: _92  and  _93
REMARK   39  A    between atoms: _92  and  _95
REMARK   40  A    between atoms: _95  and  _96
REMARK   41  A    between atoms: _98  and  _100
REMARK   42  A    between atoms: _100  and  _101
REMARK   43  A    between atoms: _103  and  _105
REMARK   44  A    between atoms: _105  and  _106
REMARK   45  A    between atoms: _105  and  _108
REMARK   46  A    between atoms: _108  and  _109
REMARK   47  A    between atoms: _112  and  _114
REMARK   48  A    between atoms: _114  and  _115
REMARK   49  A    between atoms: _114  and  _117
REMARK   50  A    between atoms: _117  and  _118
REMARK   51  A    between atoms: _120  and  _122
REMARK   52  A    between atoms: _122  and  _123
REMARK   53  A    between atoms: _122  and  _125
REMARK   54  A    between atoms: _125  and  _126
REMARK   55  A    between atoms: _137  and  _138
REMARK   56  A    between atoms: _143  and  _145
REMARK   57  A    between atoms: _145  and  _146
REMARK   58  A    between atoms: _145  and  _148
REMARK   59  A    between atoms: _148  and  _149
REMARK   60  A    between atoms: _154  and  _156
REMARK   61  A    between atoms: _156  and  _157
REMARK   62  A    between atoms: _156  and  _159
REMARK   63  A    between atoms: _159  and  _160
REMARK   64  A    between atoms: _165  and  _167
REMARK   65  A    between atoms: _167  and  _168
REMARK   66  A    between atoms: _167  and  _170
REMARK   67  A    between atoms: _170  and  _171
REMARK   68  A    between atoms: _177  and  _178
REMARK   69  A    between atoms: _183  and  _185
REMARK   70  A    between atoms: _185  and  _186
REMARK   71  A    between atoms: _189  and  _191
REMARK   72  A    between atoms: _191  and  _192
REMARK   73  A    between atoms: _191  and  _194
REMARK   74  A    between atoms: _194  and  _195
REMARK   75  A    between atoms: _200  and  _201
REMARK   76  A    between atoms: _203  and  _205
REMARK   77  A    between atoms: _205  and  _206
REMARK   78  A    between atoms: _205  and  _208
REMARK   79  A    between atoms: _208  and  _209
REMARK   80  A    between atoms: _211  and  _213
REMARK   81  A    between atoms: _213  and  _214
REMARK   82  A    between atoms: _213  and  _216
REMARK   83  A    between atoms: _216  and  _217
REMARK   84  A    between atoms: _224  and  _225
REMARK   85  A    between atoms: _225  and  _241
REMARK   86  A    between atoms: _226  and  _228
REMARK   87  A    between atoms: _228  and  _229
REMARK   88  A    between atoms: _229  and  _230
REMARK   89  A    between atoms: _234  and  _236
REMARK   90  A    between atoms: _236  and  _237
REMARK   91  A    between atoms: _236  and  _244
REMARK   92  A    between atoms: _237  and  _238
REMARK   93  A    between atoms: _238  and  _239
REMARK   94  A    between atoms: _239  and  _240
REMARK   95  A    between atoms: _240  and  _241
REMARK   96  A    between atoms: _246  and  _248
REMARK   97  A    between atoms: _248  and  _249
REMARK   98  A    between atoms: _248  and  _251
REMARK   99  A    between atoms: _251  and  _252
REMARK  100  A    between atoms: _257  and  _258
REMARK  101  A    between atoms: _260  and  _262
REMARK  102  A    between atoms: _262  and  _263
REMARK  103  A    between atoms: _262  and  _265
REMARK  104  A    between atoms: _265  and  _266
REMARK  105  A    between atoms: _266  and  _267
REMARK  106  A    between atoms: _267  and  _268
REMARK  107  A    between atoms: _277  and  _279
REMARK  108  A    between atoms: _279  and  _280
REMARK  109  A    between atoms: _279  and  _282
REMARK  110  A    between atoms: _282  and  _283
REMARK  111  A    between atoms: _283  and  _284
REMARK  112  A    between atoms: _286  and  _288
REMARK  113  A    between atoms: _288  and  _289
REMARK  114  A    between atoms: _288  and  _291
REMARK  115  A    between atoms: _291  and  _292
REMARK  116  A    between atoms: _298  and  _300
REMARK  117  A    between atoms: _300  and  _301
REMARK  118  A    between atoms: _300  and  _303
REMARK  119  A    between atoms: _306  and  _308
REMARK  120  A    between atoms: _308  and  _309
REMARK  121  A    between atoms: _308  and  _311
REMARK  122  A    between atoms: _311  and  _312
REMARK  123  A    between atoms: _312  and  _313
REMARK  124  A    between atoms: _313  and  _314
REMARK  125  A    between atoms: _323  and  _325
REMARK  126  A    between atoms: _325  and  _326
REMARK  127  A    between atoms: _325  and  _328
REMARK  128  A    between atoms: _328  and  _329
REMARK  129  A    between atoms: _334  and  _336
REMARK  130  A    between atoms: _336  and  _337
REMARK  131  A    between atoms: _336  and  _339
REMARK  132  A    between atoms: _339  and  _340
REMARK  133  A    between atoms: _345  and  _346
REMARK  134  A    between atoms: _348  and  _350
REMARK  135  A    between atoms: _350  and  _351
REMARK  136  A    between atoms: _350  and  _353
REMARK  137  A    between atoms: _353  and  _354
REMARK  138  A    between atoms: _357  and  _359
REMARK  139  A    between atoms: _359  and  _360
REMARK  140  A    between atoms: _359  and  _362
REMARK  141  A    between atoms: _362  and  _363
REMARK  142  A    between atoms: _363  and  _364
REMARK  143  A    between atoms: _364  and  _365
REMARK  144  A    between atoms: _374  and  _376
REMARK  145  A    between atoms: _376  and  _377
REMARK  146  A    between atoms: _376  and  _379
REMARK  147  A    between atoms: _379  and  _380
REMARK  148  A    between atoms: _385  and  _386
REMARK  149  A    between atoms: _388  and  _390
REMARK  150  A    between atoms: _390  and  _391
REMARK  151  A    between atoms: _390  and  _393
REMARK  152  A    between atoms: _393  and  _394
REMARK  153  A    between atoms: _396  and  _398
REMARK  154  A    between atoms: _398  and  _399
REMARK  155  A    between atoms: _398  and  _401
REMARK  156  A    between atoms: _401  and  _402
REMARK                            x       y       z     vdW  Elec       q    Type
REMARK                         _______ _______ _______ _____ _____    ______ ____
ROOT
ATOM      1  CA  VAL A   1      22.735  26.613   2.667  0.00  0.00    +0.133 C 
ENDROOT
BRANCH   1   2
ATOM      2  CB  VAL A   1      24.293  26.748   2.528  0.00  0.00    +0.023 C 
ATOM      3  CG2 VAL A   1      24.988  25.589   3.217  0.00  0.00    +0.002 C 
ATOM      4  CG1 VAL A   1      24.781  28.071   3.129  0.00  0.00    +0.002 C 
ENDBRANCH   1   2
BRANCH   1   5
ATOM      5  N   VAL A   1      22.250  25.343   2.103  0.00  0.00    -0.239 NA
ATOM      6  H   VAL A   1      22.812  24.847   1.383  0.00  0.00    +0.142 HD
ENDBRANCH   1   5
BRANCH   1   7
ATOM      7  C   VAL A   1      22.013  27.785   1.991  0.00  0.00    +0.224 C 
ATOM      8  O   VAL A   1      21.703  27.717   0.805  0.00  0.00    -0.287 OA
ENDBRANCH   1   7
TORSDOF 3
REMARK  Name = ../refined-set-2016/1toj/1toj_pocket.pdb
REMARK  156 active torsions:
REMARK  status: ('A' for Active; 'I' for Inactive)
REMARK    1  A    between atoms: _1  and  _3
REMARK    2  A    between atoms: _3  and  _4
REMARK    3  A    between atoms: _3  and  _6
REMARK    4  A    between atoms: _6  and  _7
REMARK    5  A    between atoms: _11  and  _12
REMARK    6  A    between atoms: _17  and  _19
REMARK    7  A    between atoms: _19  and  _20
REMARK    8  A    between atoms: _19  and  _22
REMARK    9  A    between atoms: _22  and  _23
REMARK   10  A    between atoms: _26  and  _28
REMARK   11  A    between atoms: _28  and  _29
REMARK   12  A    between atoms: _28  and  _31
REMARK   13  A    between atoms: _31  and  _32
REMARK   14  A    between atoms: _35  and  _37
REMARK   15  A    between atoms: _37  and  _38
REMARK   16  A    between atoms: _40  and  _42
REMARK   17  A    between atoms: _42  and  _43
REMARK   18  A    between atoms: _42  and  _45
REMARK   19  A    between atoms: _45  and  _46
REMARK   20  A    between atoms: _49  and  _51
REMARK   21  A    between atoms: _51  and  _52
REMARK   22  A    between atoms: _51  and  _54
REMARK   23  A    between atoms: _54  and  _55
REMARK   24  A    between atoms: _58  and  _60
REMARK   25  A    between atoms: _60  and  _61
REMARK   26  A    between atoms: _63  and  _65
REMARK   27  A    between atoms: _65  and  _66
REMARK   28  A    between atoms: _65  and  _68
REMARK   29  A    between atoms: _68  and  _69
REMARK   30  A    between atoms: _72  and  _74
REMARK   31  A    between atoms: _74  and  _75
REMARK   32  A    between atoms: _77  and  _79
REMARK   33  A    between atoms: _79  and  _80
REMARK   34  A    between atoms: _79  and  _82
REMARK   35  A    between atoms: _85  and  _87
REMARK   36  A    between atoms: _87  and  _88
REMARK   37  A    between atoms: _90  and  _92
REMARK   38  A    between atoms: _92  and  _93
REMARK   39  A    between atoms: _92  and  _95
REMARK   40  A    between atoms: _95  and  _96
REMARK   41  A    between atoms: _98  and  _100
REMARK   42  A    between atoms: _100  and  _101
REMARK   43  A    between atoms: _103  and  _105
REMARK   44  A    between atoms: _105  and  _106
REMARK   45  A    between atoms: _105  and  _108
REMARK   46  A    between atoms: _108  and  _109
REMARK   47  A    between atoms: _112  and  _114
REMARK   48  A    between atoms: _114  and  _115
REMARK   49  A    between atoms: _114  and  _117
REMARK   50  A    between atoms: _117  and  _118
REMARK   51  A    between atoms: _120  and  _122
REMARK   52  A    between atoms: _122  and  _123
REMARK   53  A    between atoms: _122  and  _125
REMARK   54  A    between atoms: _125  and  _126
REMARK   55  A    between atoms: _137  and  _138
REMARK   56  A    between atoms: _143  and  _145
REMARK   57  A    between atoms: _145  and  _146
REMARK   58  A    between atoms: _145  and  _148
REMARK   59  A    between atoms: _148  and  _149
REMARK   60  A    between atoms: _154  and  _156
REMARK   61  A    between atoms: _156  and  _157
REMARK   62  A    between atoms: _156  and  _159
REMARK   63  A    between atoms: _159  and  _160
REMARK   64  A    between atoms: _165  and  _167
REMARK   65  A    between atoms: _167  and  _168
REMARK   66  A    between atoms: _167  and  _170
REMARK   67  A    between atoms: _170  and  _171
REMARK   68  A    between atoms: _177  and  _178
REMARK   69  A    between atoms: _183  and  _185
REMARK   70  A    between atoms: _185  and  _186
REMARK   71  A    between atoms: _189  and  _191
REMARK   72  A    between atoms: _191  and  _192
REMARK   73  A    between atoms: _191  and  _194
REMARK   74  A    between atoms: _194  and  _195
REMARK   75  A    between atoms: _200  and  _201
REMARK   76  A    between atoms: _203  and  _205
REMARK   77  A    between atoms: _205  and  _206
REMARK   78  A    between atoms: _205  and  _208
REMARK   79  A    between atoms: _208  and  _209
REMARK   80  A    between atoms: _211  and  _213
REMARK   81  A    between atoms: _213  and  _214
REMARK   82  A    between atoms: _213  and  _216
REMARK   83  A    between atoms: _216  and  _217
REMARK   84  A    between atoms: _224  and  _225
REMARK   85  A    between atoms: _225  and  _241
REMARK   86  A    between atoms: _226  and  _228
REMARK   87  A    between atoms: _228  and  _229
REMARK   88  A    between atoms: _229  and  _230
REMARK   89  A    between atoms: _234  and  _236
REMARK   90  A    between atoms: _236  and  _237
REMARK   91  A    between atoms: _236  and  _244
REMARK   92  A    between atoms: _237  and  _238
REMARK   93  A    between atoms: _238  and  _239
REMARK   94  A    between atoms: _239  and  _240
REMARK   95  A    between atoms: _240  and  _241
REMARK   96  A    between atoms: _246  and  _248
REMARK   97  A    between atoms: _248  and  _249
REMARK   98  A    between atoms: _248  and  _251
REMARK   99  A    between atoms: _251  and  _252
REMARK  100  A    between atoms: _257  and  _258
REMARK  101  A    between atoms: _260  and  _262
REMARK  102  A    between atoms: _262  and  _263
REMARK  103  A    between atoms: _262  and  _265
REMARK  104  A    between atoms: _265  and  _266
REMARK  105  A    between atoms: _266  and  _267
REMARK  106  A    between atoms: _267  and  _268
REMARK  107  A    between atoms: _277  and  _279
REMARK  108  A    between atoms: _279  and  _280
REMARK  109  A    between atoms: _279  and  _282
REMARK  110  A    between atoms: _282  and  _283
REMARK  111  A    between atoms: _283  and  _284
REMARK  112  A    between atoms: _286  and  _288
REMARK  113  A    between atoms: _288  and  _289
REMARK  114  A    between atoms: _288  and  _291
REMARK  115  A    between atoms: _291  and  _292
REMARK  116  A    between atoms: _298  and  _300
REMARK  117  A    between atoms: _300  and  _301
REMARK  118  A    between atoms: _300  and  _303
REMARK  119  A    between atoms: _306  and  _308
REMARK  120  A    between atoms: _308  and  _309
REMARK  121  A    between atoms: _308  and  _311
REMARK  122  A    between atoms: _311  and  _312
REMARK  123  A    between atoms: _312  and  _313
REMARK  124  A    between atoms: _313  and  _314
REMARK  125  A    between atoms: _323  and  _325
REMARK  126  A    between atoms: _325  and  _326
REMARK  127  A    between atoms: _325  and  _328
REMARK  128  A    between atoms: _328  and  _329
REMARK  129  A    between atoms: _334  and  _336
REMARK  130  A    between atoms: _336  and  _337
REMARK  131  A    between atoms: _336  and  _339
REMARK  132  A    between atoms: _339  and  _340
REMARK  133  A    between atoms: _345  and  _346
REMARK  134  A    between atoms: _348  and  _350
REMARK  135  A    between atoms: _350  and  _351
REMARK  136  A    between atoms: _350  and  _353
REMARK  137  A    between atoms: _353  and  _354
REMARK  138  A    between atoms: _357  and  _359
REMARK  139  A    between atoms: _359  and  _360
REMARK  140  A    between atoms: _359  and  _362
REMARK  141  A    between atoms: _362  and  _363
REMARK  142  A    between atoms: _363  and  _364
REMARK  143  A    between atoms: _364  and  _365
REMARK  144  A    between atoms: _374  and  _376
REMARK  145  A    between atoms: _376  and  _377
REMARK  146  A    between atoms: _376  and  _379
REMARK  147  A    between atoms: _379  and  _380
REMARK  148  A    between atoms: _385  and  _386
REMARK  149  A    between atoms: _388  and  _390
REMARK  150  A    between atoms: _390  and  _391
REMARK  151  A    between atoms: _390  and  _393
REMARK  152  A    between atoms: _393  and  _394
REMARK  153  A    between atoms: _396  and  _398
REMARK  154  A    between atoms: _398  and  _399
REMARK  155  A    between atoms: _398  and  _401
REMARK  156  A    between atoms: _401  and  _402
REMARK                            x       y       z     vdW  Elec       q    Type
REMARK                         _______ _______ _______ _____ _____    ______ ____
ROOT
ATOM      1  NE  ARG A   1      27.854  24.761   0.968  0.00  0.00    -0.265 N 
ATOM      2  CZ  ARG A   1      28.553  24.778   2.094  0.00  0.00    +0.342 C 
ATOM      3  NH2 ARG A   1      28.102  24.093   3.142  0.00  0.00    -0.292 N 
ATOM      4 HH21 ARG A   1      28.637  24.095   4.034  0.00  0.00    +0.255 HD
ATOM      5 HH22 ARG A   1      27.214  23.556   3.069  0.00  0.00    +0.255 HD
ATOM      6  NH1 ARG A   1      29.679  25.508   2.181  0.00  0.00    -0.292 N 
ATOM      7 HH11 ARG A   1      30.225  25.519   3.066  0.00  0.00    +0.255 HD
ATOM      8 HH12 ARG A   1      30.004  26.062   1.363  0.00  0.00    +0.255 HD
ATOM      9  HE  ARG A   1      26.955  24.237   0.960  0.00  0.00    +0.259 HD
ENDROOT
BRANCH   1  10
ATOM     10  CD  ARG A   1      28.268  25.434  -0.267  0.00  0.00    +0.174 C 
BRANCH  10  11
ATOM     11  CG  ARG A   1      27.215  25.245  -1.377  0.00  0.00    +0.045 C 
BRANCH  11  12
ATOM     12  CB  ARG A   1      26.006  26.155  -1.179  0.00  0.00    +0.029 C 
BRANCH  12  13
ATOM     13  CA  ARG A   1      24.805  25.799  -2.046  0.00  0.00    +0.133 C 
BRANCH  13  14
ATOM     14  N   ARG A   1      23.809  26.872  -1.980  0.00  0.00    -0.239 NA
ATOM     15  H   ARG A   1      23.854  27.567  -1.208  0.00  0.00    +0.142 HD
ENDBRANCH  13  14
BRANCH  13  16
ATOM     16  C   ARG A   1      24.207  24.495  -1.553  0.00  0.00    +0.224 C 
ATOM     17  O   ARG A   1      23.656  24.431  -0.460  0.00  0.00    -0.287 OA
ENDBRANCH  13  16
ENDBRANCH  12  13
ENDBRANCH  11  12
ENDBRANCH  10  11
ENDBRANCH   1  10
TORSDOF 6
REMARK  Name = ../refined-set-2016/1toj/1toj_pocket.pdb
REMARK  156 active torsions:
REMARK  status: ('A' for Active; 'I' for Inactive)
REMARK    1  A    between atoms: _1  and  _3
REMARK    2  A    between atoms: _3  and  _4
REMARK    3  A    between atoms: _3  and  _6
REMARK    4  A    between atoms: _6  and  _7
REMARK    5  A    between atoms: _11  and  _12
REMARK    6  A    between atoms: _17  and  _19
REMARK    7  A    between atoms: _19  and  _20
REMARK    8  A    between atoms: _19  and  _22
REMARK    9  A    between atoms: _22  and  _23
REMARK   10  A    between atoms: _26  and  _28
REMARK   11  A    between atoms: _28  and  _29
REMARK   12  A    between atoms: _28  and  _31
REMARK   13  A    between atoms: _31  and  _32
REMARK   14  A    between atoms: _35  and  _37
REMARK   15  A    between atoms: _37  and  _38
REMARK   16  A    between atoms: _40  and  _42
REMARK   17  A    between atoms: _42  and  _43
REMARK   18  A    between atoms: _42  and  _45
REMARK   19  A    between atoms: _45  and  _46
REMARK   20  A    between atoms: _49  and  _51
REMARK   21  A    between atoms: _51  and  _52
REMARK   22  A    between atoms: _51  and  _54
REMARK   23  A    between atoms: _54  and  _55
REMARK   24  A    between atoms: _58  and  _60
REMARK   25  A    between atoms: _60  and  _61
REMARK   26  A    between atoms: _63  and  _65
REMARK   27  A    between atoms: _65  and  _66
REMARK   28  A    between atoms: _65  and  _68
REMARK   29  A    between atoms: _68  and  _69
REMARK   30  A    between atoms: _72  and  _74
REMARK   31  A    between atoms: _74  and  _75
REMARK   32  A    between atoms: _77  and  _79
REMARK   33  A    between atoms: _79  and  _80
REMARK   34  A    between atoms: _79  and  _82
REMARK   35  A    between atoms: _85  and  _87
REMARK   36  A    between atoms: _87  and  _88
REMARK   37  A    between atoms: _90  and  _92
REMARK   38  A    between atoms: _92  and  _93
REMARK   39  A    between atoms: _92  and  _95
REMARK   40  A    between atoms: _95  and  _96
REMARK   41  A    between atoms: _98  and  _100
REMARK   42  A    between atoms: _100  and  _101
REMARK   43  A    between atoms: _103  and  _105
REMARK   44  A    between atoms: _105  and  _106
REMARK   45  A    between atoms: _105  and  _108
REMARK   46  A    between atoms: _108  and  _109
REMARK   47  A    between atoms: _112  and  _114
REMARK   48  A    between atoms: _114  and  _115
REMARK   49  A    between atoms: _114  and  _117
REMARK   50  A    between atoms: _117  and  _118
REMARK   51  A    between atoms: _120  and  _122
REMARK   52  A    between atoms: _122  and  _123
REMARK   53  A    between atoms: _122  and  _125
REMARK   54  A    between atoms: _125  and  _126
REMARK   55  A    between atoms: _137  and  _138
REMARK   56  A    between atoms: _143  and  _145
REMARK   57  A    between atoms: _145  and  _146
REMARK   58  A    between atoms: _145  and  _148
REMARK   59  A    between atoms: _148  and  _149
REMARK   60  A    between atoms: _154  and  _156
REMARK   61  A    between atoms: _156  and  _157
REMARK   62  A    between atoms: _156  and  _159
REMARK   63  A    between atoms: _159  and  _160
REMARK   64  A    between atoms: _165  and  _167
REMARK   65  A    between atoms: _167  and  _168
REMARK   66  A    between atoms: _167  and  _170
REMARK   67  A    between atoms: _170  and  _171
REMARK   68  A    between atoms: _177  and  _178
REMARK   69  A    between atoms: _183  and  _185
REMARK   70  A    between atoms: _185  and  _186
REMARK   71  A    between atoms: _189  and  _191
REMARK   72  A    between atoms: _191  and  _192
REMARK   73  A    between atoms: _191  and  _194
REMARK   74  A    between atoms: _194  and  _195
REMARK   75  A    between atoms: _200  and  _201
REMARK   76  A    between atoms: _203  and  _205
REMARK   77  A    between atoms: _205  and  _206
REMARK   78  A    between atoms: _205  and  _208
REMARK   79  A    between atoms: _208  and  _209
REMARK   80  A    between atoms: _211  and  _213
REMARK   81  A    between atoms: _213  and  _214
REMARK   82  A    between atoms: _213  and  _216
REMARK   83  A    between atoms: _216  and  _217
REMARK   84  A    between atoms: _224  and  _225
REMARK   85  A    between atoms: _225  and  _241
REMARK   86  A    between atoms: _226  and  _228
REMARK   87  A    between atoms: _228  and  _229
REMARK   88  A    between atoms: _229  and  _230
REMARK   89  A    between atoms: _234  and  _236
REMARK   90  A    between atoms: _236  and  _237
REMARK   91  A    between atoms: _236  and  _244
REMARK   92  A    between atoms: _237  and  _238
REMARK   93  A    between atoms: _238  and  _239
REMARK   94  A    between atoms: _239  and  _240
REMARK   95  A    between atoms: _240  and  _241
REMARK   96  A    between atoms: _246  and  _248
REMARK   97  A    between atoms: _248  and  _249
REMARK   98  A    between atoms: _248  and  _251
REMARK   99  A    between atoms: _251  and  _252
REMARK  100  A    between atoms: _257  and  _258
REMARK  101  A    between atoms: _260  and  _262
REMARK  102  A    between atoms: _262  and  _263
REMARK  103  A    between atoms: _262  and  _265
REMARK  104  A    between atoms: _265  and  _266
REMARK  105  A    between atoms: _266  and  _267
REMARK  106  A    between atoms: _267  and  _268
REMARK  107  A    between atoms: _277  and  _279
REMARK  108  A    between atoms: _279  and  _280
REMARK  109  A    between atoms: _279  and  _282
REMARK  110  A    between atoms: _282  and  _283
REMARK  111  A    between atoms: _283  and  _284
REMARK  112  A    between atoms: _286  and  _288
REMARK  113  A    between atoms: _288  and  _289
REMARK  114  A    between atoms: _288  and  _291
REMARK  115  A    between atoms: _291  and  _292
REMARK  116  A    between atoms: _298  and  _300
REMARK  117  A    between atoms: _300  and  _301
REMARK  118  A    between atoms: _300  and  _303
REMARK  119  A    between atoms: _306  and  _308
REMARK  120  A    between atoms: _308  and  _309
REMARK  121  A    between atoms: _308  and  _311
REMARK  122  A    between atoms: _311  and  _312
REMARK  123  A    between atoms: _312  and  _313
REMARK  124  A    between atoms: _313  and  _314
REMARK  125  A    between atoms: _323  and  _325
REMARK  126  A    between atoms: _325  and  _326
REMARK  127  A    between atoms: _325  and  _328
REMARK  128  A    between atoms: _328  and  _329
REMARK  129  A    between atoms: _334  and  _336
REMARK  130  A    between atoms: _336  and  _337
REMARK  131  A    between atoms: _336  and  _339
REMARK  132  A    between atoms: _339  and  _340
REMARK  133  A    between atoms: _345  and  _346
REMARK  134  A    between atoms: _348  and  _350
REMARK  135  A    between atoms: _350  and  _351
REMARK  136  A    between atoms: _350  and  _353
REMARK  137  A    between atoms: _353  and  _354
REMARK  138  A    between atoms: _357  and  _359
REMARK  139  A    between atoms: _359  and  _360
REMARK  140  A    between atoms: _359  and  _362
REMARK  141  A    between atoms: _362  and  _363
REMARK  142  A    between atoms: _363  and  _364
REMARK  143  A    between atoms: _364  and  _365
REMARK  144  A    between atoms: _374  and  _376
REMARK  145  A    between atoms: _376  and  _377
REMARK  146  A    between atoms: _376  and  _379
REMARK  147  A    between atoms: _379  and  _380
REMARK  148  A    between atoms: _385  and  _386
REMARK  149  A    between atoms: _388  and  _390
REMARK  150  A    between atoms: _390  and  _391
REMARK  151  A    between atoms: _390  and  _393
REMARK  152  A    between atoms: _393  and  _394
REMARK  153  A    between atoms: _396  and  _398
REMARK  154  A    between atoms: _398  and  _399
REMARK  155  A    between atoms: _398  and  _401
REMARK  156  A    between atoms: _401  and  _402
REMARK                            x       y       z     vdW  Elec       q    Type
REMARK                         _______ _______ _______ _____ _____    ______ ____
ROOT
ATOM      1  CB  ASN A   1      26.160  18.831   0.748  0.00  0.00    +0.110 C 
ENDROOT
BRANCH   1   2
ATOM      2  CG  ASN A   1      27.254  17.809   1.004  0.00  0.00    +0.221 C 
ATOM      3  OD1 ASN A   1      27.271  17.149   2.046  0.00  0.00    -0.275 OA
ATOM      4  ND2 ASN A   1      28.149  17.650   0.052  0.00  0.00    -0.329 N 
ATOM      5 HD21 ASN A   1      28.907  16.947   0.163  0.00  0.00    +0.145 HD
ATOM      6 HD22 ASN A   1      28.098  18.228  -0.811  0.00  0.00    +0.145 HD
ENDBRANCH   1   2
BRANCH   1   7
ATOM      7  CA  ASN A   1      26.018  19.204  -0.743  0.00  0.00    +0.142 C 
BRANCH   7   8
ATOM      8  N   ASN A   1      24.983  20.233  -0.902  0.00  0.00    -0.239 NA
ATOM      9  H   ASN A   1      24.220  20.296  -0.198  0.00  0.00    +0.142 HD
ENDBRANCH   7   8
BRANCH   7  10
ATOM     10  C   ASN A   1      25.729  17.979  -1.620  0.00  0.00    +0.225 C 
ATOM     11  O   ASN A   1      24.955  17.100  -1.233  0.00  0.00    -0.287 OA
ENDBRANCH   7  10
ENDBRANCH   1   7
TORSDOF 4
REMARK  Name = ../refined-set-2016/1toj/1toj_pocket.pdb
REMARK  156 active torsions:
REMARK  status: ('A' for Active; 'I' for Inactive)
REMARK    1  A    between atoms: _1  and  _3
REMARK    2  A    between atoms: _3  and  _4
REMARK    3  A    between atoms: _3  and  _6
REMARK    4  A    between atoms: _6  and  _7
REMARK    5  A    between atoms: _11  and  _12
REMARK    6  A    between atoms: _17  and  _19
REMARK    7  A    between atoms: _19  and  _20
REMARK    8  A    between atoms: _19  and  _22
REMARK    9  A    between atoms: _22  and  _23
REMARK   10  A    between atoms: _26  and  _28
REMARK   11  A    between atoms: _28  and  _29
REMARK   12  A    between atoms: _28  and  _31
REMARK   13  A    between atoms: _31  and  _32
REMARK   14  A    between atoms: _35  and  _37
REMARK   15  A    between atoms: _37  and  _38
REMARK   16  A    between atoms: _40  and  _42
REMARK   17  A    between atoms: _42  and  _43
REMARK   18  A    between atoms: _42  and  _45
REMARK   19  A    between atoms: _45  and  _46
REMARK   20  A    between atoms: _49  and  _51
REMARK   21  A    between atoms: _51  and  _52
REMARK   22  A    between atoms: _51  and  _54
REMARK   23  A    between atoms: _54  and  _55
REMARK   24  A    between atoms: _58  and  _60
REMARK   25  A    between atoms: _60  and  _61
REMARK   26  A    between atoms: _63  and  _65
REMARK   27  A    between atoms: _65  and  _66
REMARK   28  A    between atoms: _65  and  _68
REMARK   29  A    between atoms: _68  and  _69
REMARK   30  A    between atoms: _72  and  _74
REMARK   31  A    between atoms: _74  and  _75
REMARK   32  A    between atoms: _77  and  _79
REMARK   33  A    between atoms: _79  and  _80
REMARK   34  A    between atoms: _79  and  _82
REMARK   35  A    between atoms: _85  and  _87
REMARK   36  A    between atoms: _87  and  _88
REMARK   37  A    between atoms: _90  and  _92
REMARK   38  A    between atoms: _92  and  _93
REMARK   39  A    between atoms: _92  and  _95
REMARK   40  A    between atoms: _95  and  _96
REMARK   41  A    between atoms: _98  and  _100
REMARK   42  A    between atoms: _100  and  _101
REMARK   43  A    between atoms: _103  and  _105
REMARK   44  A    between atoms: _105  and  _106
REMARK   45  A    between atoms: _105  and  _108
REMARK   46  A    between atoms: _108  and  _109
REMARK   47  A    between atoms: _112  and  _114
REMARK   48  A    between atoms: _114  and  _115
REMARK   49  A    between atoms: _114  and  _117
REMARK   50  A    between atoms: _117  and  _118
REMARK   51  A    between atoms: _120  and  _122
REMARK   52  A    between atoms: _122  and  _123
REMARK   53  A    between atoms: _122  and  _125
REMARK   54  A    between atoms: _125  and  _126
REMARK   55  A    between atoms: _137  and  _138
REMARK   56  A    between atoms: _143  and  _145
REMARK   57  A    between atoms: _145  and  _146
REMARK   58  A    between atoms: _145  and  _148
REMARK   59  A    between atoms: _148  and  _149
REMARK   60  A    between atoms: _154  and  _156
REMARK   61  A    between atoms: _156  and  _157
REMARK   62  A    between atoms: _156  and  _159
REMARK   63  A    between atoms: _159  and  _160
REMARK   64  A    between atoms: _165  and  _167
REMARK   65  A    between atoms: _167  and  _168
REMARK   66  A    between atoms: _167  and  _170
REMARK   67  A    between atoms: _170  and  _171
REMARK   68  A    between atoms: _177  and  _178
REMARK   69  A    between atoms: _183  and  _185
REMARK   70  A    between atoms: _185  and  _186
REMARK   71  A    between atoms: _189  and  _191
REMARK   72  A    between atoms: _191  and  _192
REMARK   73  A    between atoms: _191  and  _194
REMARK   74  A    between atoms: _194  and  _195
REMARK   75  A    between atoms: _200  and  _201
REMARK   76  A    between atoms: _203  and  _205
REMARK   77  A    between atoms: _205  and  _206
REMARK   78  A    between atoms: _205  and  _208
REMARK   79  A    between atoms: _208  and  _209
REMARK   80  A    between atoms: _211  and  _213
REMARK   81  A    between atoms: _213  and  _214
REMARK   82  A    between atoms: _213  and  _216
REMARK   83  A    between atoms: _216  and  _217
REMARK   84  A    between atoms: _224  and  _225
REMARK   85  A    between atoms: _225  and  _241
REMARK   86  A    between atoms: _226  and  _228
REMARK   87  A    between atoms: _228  and  _229
REMARK   88  A    between atoms: _229  and  _230
REMARK   89  A    between atoms: _234  and  _236
REMARK   90  A    between atoms: _236  and  _237
REMARK   91  A    between atoms: _236  and  _244
REMARK   92  A    between atoms: _237  and  _238
REMARK   93  A    between atoms: _238  and  _239
REMARK   94  A    between atoms: _239  and  _240
REMARK   95  A    between atoms: _240  and  _241
REMARK   96  A    between atoms: _246  and  _248
REMARK   97  A    between atoms: _248  and  _249
REMARK   98  A    between atoms: _248  and  _251
REMARK   99  A    between atoms: _251  and  _252
REMARK  100  A    between atoms: _257  and  _258
REMARK  101  A    between atoms: _260  and  _262
REMARK  102  A    between atoms: _262  and  _263
REMARK  103  A    between atoms: _262  and  _265
REMARK  104  A    between atoms: _265  and  _266
REMARK  105  A    between atoms: _266  and  _267
REMARK  106  A    between atoms: _267  and  _268
REMARK  107  A    between atoms: _277  and  _279
REMARK  108  A    between atoms: _279  and  _280
REMARK  109  A    between atoms: _279  and  _282
REMARK  110  A    between atoms: _282  and  _283
REMARK  111  A    between atoms: _283  and  _284
REMARK  112  A    between atoms: _286  and  _288
REMARK  113  A    between atoms: _288  and  _289
REMARK  114  A    between atoms: _288  and  _291
REMARK  115  A    between atoms: _291  and  _292
REMARK  116  A    between atoms: _298  and  _300
REMARK  117  A    between atoms: _300  and  _301
REMARK  118  A    between atoms: _300  and  _303
REMARK  119  A    between atoms: _306  and  _308
REMARK  120  A    between atoms: _308  and  _309
REMARK  121  A    between atoms: _308  and  _311
REMARK  122  A    between atoms: _311  and  _312
REMARK  123  A    between atoms: _312  and  _313
REMARK  124  A    between atoms: _313  and  _314
REMARK  125  A    between atoms: _323  and  _325
REMARK  126  A    between atoms: _325  and  _326
REMARK  127  A    between atoms: _325  and  _328
REMARK  128  A    between atoms: _328  and  _329
REMARK  129  A    between atoms: _334  and  _336
REMARK  130  A    between atoms: _336  and  _337
REMARK  131  A    between atoms: _336  and  _339
REMARK  132  A    between atoms: _339  and  _340
REMARK  133  A    between atoms: _345  and  _346
REMARK  134  A    between atoms: _348  and  _350
REMARK  135  A    between atoms: _350  and  _351
REMARK  136  A    between atoms: _350  and  _353
REMARK  137  A    between atoms: _353  and  _354
REMARK  138  A    between atoms: _357  and  _359
REMARK  139  A    between atoms: _359  and  _360
REMARK  140  A    between atoms: _359  and  _362
REMARK  141  A    between atoms: _362  and  _363
REMARK  142  A    between atoms: _363  and  _364
REMARK  143  A    between atoms: _364  and  _365
REMARK  144  A    between atoms: _374  and  _376
REMARK  145  A    between atoms: _376  and  _377
REMARK  146  A    between atoms: _376  and  _379
REMARK  147  A    between atoms: _379  and  _380
REMARK  148  A    between atoms: _385  and  _386
REMARK  149  A    between atoms: _388  and  _390
REMARK  150  A    between atoms: _390  and  _391
REMARK  151  A    between atoms: _390  and  _393
REMARK  152  A    between atoms: _393  and  _394
REMARK  153  A    between atoms: _396  and  _398
REMARK  154  A    between atoms: _398  and  _399
REMARK  155  A    between atoms: _398  and  _401
REMARK  156  A    between atoms: _401  and  _402
REMARK                            x       y       z     vdW  Elec       q    Type
REMARK                         _______ _______ _______ _____ _____    ______ ____
ROOT
ATOM      1  CG  TYR A   1      32.214  19.194  11.473  0.00  0.00    -0.020 A 
ATOM      2  CD2 TYR A   1      33.457  19.736  11.836  0.00  0.00    -0.001 A 
ATOM      3  CE2 TYR A   1      34.377  20.147  10.867  0.00  0.00    +0.036 A 
ATOM      4  CZ  TYR A   1      34.078  20.013   9.533  0.00  0.00    +0.134 A 
ATOM      5  CE1 TYR A   1      32.852  19.474   9.134  0.00  0.00    +0.036 A 
ATOM      6  CD1 TYR A   1      31.917  19.082  10.123  0.00  0.00    -0.001 A 
ENDROOT
BRANCH   4   7
ATOM      7  OH  TYR A   1      35.023  20.400   8.601  0.00  0.00    -0.506 OA
ATOM      8  HH  TYR A   1      35.820  20.755   9.069  0.00  0.00    +0.292 HD
ENDBRANCH   4   7
BRANCH   1   9
ATOM      9  CB  TYR A   1      31.207  18.781  12.530  0.00  0.00    +0.051 C 
BRANCH   9  10
ATOM     10  CA  TYR A   1      31.531  17.462  13.233  0.00  0.00    +0.137 C 
BRANCH  10  11
ATOM     11  N   TYR A   1      31.305  16.334  12.313  0.00  0.00    -0.239 NA
ATOM     12  H   TYR A   1      31.181  16.532  11.300  0.00  0.00    +0.142 HD
ENDBRANCH  10  11
BRANCH  10  13
ATOM     13  C   TYR A   1      30.664  17.401  14.486  0.00  0.00    +0.224 C 
ATOM     14  O   TYR A   1      29.464  17.130  14.387  0.00  0.00    -0.287 OA
ENDBRANCH  10  13
ENDBRANCH   9  10
ENDBRANCH   1   9
TORSDOF 5
REMARK  Name = ../refined-set-2016/1toj/1toj_pocket.pdb
REMARK  156 active torsions:
REMARK  status: ('A' for Active; 'I' for Inactive)
REMARK    1  A    between atoms: _1  and  _3
REMARK    2  A    between atoms: _3  and  _4
REMARK    3  A    between atoms: _3  and  _6
REMARK    4  A    between atoms: _6  and  _7
REMARK    5  A    between atoms: _11  and  _12
REMARK    6  A    between atoms: _17  and  _19
REMARK    7  A    between atoms: _19  and  _20
REMARK    8  A    between atoms: _19  and  _22
REMARK    9  A    between atoms: _22  and  _23
REMARK   10  A    between atoms: _26  and  _28
REMARK   11  A    between atoms: _28  and  _29
REMARK   12  A    between atoms: _28  and  _31
REMARK   13  A    between atoms: _31  and  _32
REMARK   14  A    between atoms: _35  and  _37
REMARK   15  A    between atoms: _37  and  _38
REMARK   16  A    between atoms: _40  and  _42
REMARK   17  A    between atoms: _42  and  _43
REMARK   18  A    between atoms: _42  and  _45
REMARK   19  A    between atoms: _45  and  _46
REMARK   20  A    between atoms: _49  and  _51
REMARK   21  A    between atoms: _51  and  _52
REMARK   22  A    between atoms: _51  and  _54
REMARK   23  A    between atoms: _54  and  _55
REMARK   24  A    between atoms: _58  and  _60
REMARK   25  A    between atoms: _60  and  _61
REMARK   26  A    between atoms: _63  and  _65
REMARK   27  A    between atoms: _65  and  _66
REMARK   28  A    between atoms: _65  and  _68
REMARK   29  A    between atoms: _68  and  _69
REMARK   30  A    between atoms: _72  and  _74
REMARK   31  A    between atoms: _74  and  _75
REMARK   32  A    between atoms: _77  and  _79
REMARK   33  A    between atoms: _79  and  _80
REMARK   34  A    between atoms: _79  and  _82
REMARK   35  A    between atoms: _85  and  _87
REMARK   36  A    between atoms: _87  and  _88
REMARK   37  A    between atoms: _90  and  _92
REMARK   38  A    between atoms: _92  and  _93
REMARK   39  A    between atoms: _92  and  _95
REMARK   40  A    between atoms: _95  and  _96
REMARK   41  A    between atoms: _98  and  _100
REMARK   42  A    between atoms: _100  and  _101
REMARK   43  A    between atoms: _103  and  _105
REMARK   44  A    between atoms: _105  and  _106
REMARK   45  A    between atoms: _105  and  _108
REMARK   46  A    between atoms: _108  and  _109
REMARK   47  A    between atoms: _112  and  _114
REMARK   48  A    between atoms: _114  and  _115
REMARK   49  A    between atoms: _114  and  _117
REMARK   50  A    between atoms: _117  and  _118
REMARK   51  A    between atoms: _120  and  _122
REMARK   52  A    between atoms: _122  and  _123
REMARK   53  A    between atoms: _122  and  _125
REMARK   54  A    between atoms: _125  and  _126
REMARK   55  A    between atoms: _137  and  _138
REMARK   56  A    between atoms: _143  and  _145
REMARK   57  A    between atoms: _145  and  _146
REMARK   58  A    between atoms: _145  and  _148
REMARK   59  A    between atoms: _148  and  _149
REMARK   60  A    between atoms: _154  and  _156
REMARK   61  A    between atoms: _156  and  _157
REMARK   62  A    between atoms: _156  and  _159
REMARK   63  A    between atoms: _159  and  _160
REMARK   64  A    between atoms: _165  and  _167
REMARK   65  A    between atoms: _167  and  _168
REMARK   66  A    between atoms: _167  and  _170
REMARK   67  A    between atoms: _170  and  _171
REMARK   68  A    between atoms: _177  and  _178
REMARK   69  A    between atoms: _183  and  _185
REMARK   70  A    between atoms: _185  and  _186
REMARK   71  A    between atoms: _189  and  _191
REMARK   72  A    between atoms: _191  and  _192
REMARK   73  A    between atoms: _191  and  _194
REMARK   74  A    between atoms: _194  and  _195
REMARK   75  A    between atoms: _200  and  _201
REMARK   76  A    between atoms: _203  and  _205
REMARK   77  A    between atoms: _205  and  _206
REMARK   78  A    between atoms: _205  and  _208
REMARK   79  A    between atoms: _208  and  _209
REMARK   80  A    between atoms: _211  and  _213
REMARK   81  A    between atoms: _213  and  _214
REMARK   82  A    between atoms: _213  and  _216
REMARK   83  A    between atoms: _216  and  _217
REMARK   84  A    between atoms: _224  and  _225
REMARK   85  A    between atoms: _225  and  _241
REMARK   86  A    between atoms: _226  and  _228
REMARK   87  A    between atoms: _228  and  _229
REMARK   88  A    between atoms: _229  and  _230
REMARK   89  A    between atoms: _234  and  _236
REMARK   90  A    between atoms: _236  and  _237
REMARK   91  A    between atoms: _236  and  _244
REMARK   92  A    between atoms: _237  and  _238
REMARK   93  A    between atoms: _238  and  _239
REMARK   94  A    between atoms: _239  and  _240
REMARK   95  A    between atoms: _240  and  _241
REMARK   96  A    between atoms: _246  and  _248
REMARK   97  A    between atoms: _248  and  _249
REMARK   98  A    between atoms: _248  and  _251
REMARK   99  A    between atoms: _251  and  _252
REMARK  100  A    between atoms: _257  and  _258
REMARK  101  A    between atoms: _260  and  _262
REMARK  102  A    between atoms: _262  and  _263
REMARK  103  A    between atoms: _262  and  _265
REMARK  104  A    between atoms: _265  and  _266
REMARK  105  A    between atoms: _266  and  _267
REMARK  106  A    between atoms: _267  and  _268
REMARK  107  A    between atoms: _277  and  _279
REMARK  108  A    between atoms: _279  and  _280
REMARK  109  A    between atoms: _279  and  _282
REMARK  110  A    between atoms: _282  and  _283
REMARK  111  A    between atoms: _283  and  _284
REMARK  112  A    between atoms: _286  and  _288
REMARK  113  A    between atoms: _288  and  _289
REMARK  114  A    between atoms: _288  and  _291
REMARK  115  A    between atoms: _291  and  _292
REMARK  116  A    between atoms: _298  and  _300
REMARK  117  A    between atoms: _300  and  _301
REMARK  118  A    between atoms: _300  and  _303
REMARK  119  A    between atoms: _306  and  _308
REMARK  120  A    between atoms: _308  and  _309
REMARK  121  A    between atoms: _308  and  _311
REMARK  122  A    between atoms: _311  and  _312
REMARK  123  A    between atoms: _312  and  _313
REMARK  124  A    between atoms: _313  and  _314
REMARK  125  A    between atoms: _323  and  _325
REMARK  126  A    between atoms: _325  and  _326
REMARK  127  A    between atoms: _325  and  _328
REMARK  128  A    between atoms: _328  and  _329
REMARK  129  A    between atoms: _334  and  _336
REMARK  130  A    between atoms: _336  and  _337
REMARK  131  A    between atoms: _336  and  _339
REMARK  132  A    between atoms: _339  and  _340
REMARK  133  A    between atoms: _345  and  _346
REMARK  134  A    between atoms: _348  and  _350
REMARK  135  A    between atoms: _350  and  _351
REMARK  136  A    between atoms: _350  and  _353
REMARK  137  A    between atoms: _353  and  _354
REMARK  138  A    between atoms: _357  and  _359
REMARK  139  A    between atoms: _359  and  _360
REMARK  140  A    between atoms: _359  and  _362
REMARK  141  A    between atoms: _362  and  _363
REMARK  142  A    between atoms: _363  and  _364
REMARK  143  A    between atoms: _364  and  _365
REMARK  144  A    between atoms: _374  and  _376
REMARK  145  A    between atoms: _376  and  _377
REMARK  146  A    between atoms: _376  and  _379
REMARK  147  A    between atoms: _379  and  _380
REMARK  148  A    between atoms: _385  and  _386
REMARK  149  A    between atoms: _388  and  _390
REMARK  150  A    between atoms: _390  and  _391
REMARK  151  A    between atoms: _390  and  _393
REMARK  152  A    between atoms: _393  and  _394
REMARK  153  A    between atoms: _396  and  _398
REMARK  154  A    between atoms: _398  and  _399
REMARK  155  A    between atoms: _398  and  _401
REMARK  156  A    between atoms: _401  and  _402
REMARK                            x       y       z     vdW  Elec       q    Type
REMARK                         _______ _______ _______ _____ _____    ______ ____
ROOT
ATOM      1  CA  ILE A   1      30.183  24.127  18.413  0.00  0.00    +0.133 C 
ENDROOT
BRANCH   1   2
ATOM      2  N   ILE A   1      29.165  23.168  17.980  0.00  0.00    -0.239 NA
ATOM      3  H   ILE A   1      28.281  23.512  17.554  0.00  0.00    +0.142 HD
ENDBRANCH   1   2
BRANCH   1   4
ATOM      4  C   ILE A   1      30.566  23.944  19.887  0.00  0.00    +0.224 C 
ATOM      5  O   ILE A   1      31.725  24.158  20.267  0.00  0.00    -0.287 OA
ENDBRANCH   1   4
BRANCH   1   6
ATOM      6  CB  ILE A   1      29.717  25.580  18.168  0.00  0.00    +0.023 C 
ATOM      7  CG2 ILE A   1      30.669  26.565  18.858  0.00  0.00    +0.002 C 
BRANCH   6   8
ATOM      8  CG1 ILE A   1      29.603  25.845  16.660  0.00  0.00    +0.002 C 
ATOM      9  CD1 ILE A   1      28.844  27.129  16.311  0.00  0.00    +0.000 C 
ENDBRANCH   6   8
ENDBRANCH   1   6
TORSDOF 4
REMARK  Name = ../refined-set-2016/1toj/1toj_pocket.pdb
REMARK  156 active torsions:
REMARK  status: ('A' for Active; 'I' for Inactive)
REMARK    1  A    between atoms: _1  and  _3
REMARK    2  A    between atoms: _3  and  _4
REMARK    3  A    between atoms: _3  and  _6
REMARK    4  A    between atoms: _6  and  _7
REMARK    5  A    between atoms: _11  and  _12
REMARK    6  A    between atoms: _17  and  _19
REMARK    7  A    between atoms: _19  and  _20
REMARK    8  A    between atoms: _19  and  _22
REMARK    9  A    between atoms: _22  and  _23
REMARK   10  A    between atoms: _26  and  _28
REMARK   11  A    between atoms: _28  and  _29
REMARK   12  A    between atoms: _28  and  _31
REMARK   13  A    between atoms: _31  and  _32
REMARK   14  A    between atoms: _35  and  _37
REMARK   15  A    between atoms: _37  and  _38
REMARK   16  A    between atoms: _40  and  _42
REMARK   17  A    between atoms: _42  and  _43
REMARK   18  A    between atoms: _42  and  _45
REMARK   19  A    between atoms: _45  and  _46
REMARK   20  A    between atoms: _49  and  _51
REMARK   21  A    between atoms: _51  and  _52
REMARK   22  A    between atoms: _51  and  _54
REMARK   23  A    between atoms: _54  and  _55
REMARK   24  A    between atoms: _58  and  _60
REMARK   25  A    between atoms: _60  and  _61
REMARK   26  A    between atoms: _63  and  _65
REMARK   27  A    between atoms: _65  and  _66
REMARK   28  A    between atoms: _65  and  _68
REMARK   29  A    between atoms: _68  and  _69
REMARK   30  A    between atoms: _72  and  _74
REMARK   31  A    between atoms: _74  and  _75
REMARK   32  A    between atoms: _77  and  _79
REMARK   33  A    between atoms: _79  and  _80
REMARK   34  A    between atoms: _79  and  _82
REMARK   35  A    between atoms: _85  and  _87
REMARK   36  A    between atoms: _87  and  _88
REMARK   37  A    between atoms: _90  and  _92
REMARK   38  A    between atoms: _92  and  _93
REMARK   39  A    between atoms: _92  and  _95
REMARK   40  A    between atoms: _95  and  _96
REMARK   41  A    between atoms: _98  and  _100
REMARK   42  A    between atoms: _100  and  _101
REMARK   43  A    between atoms: _103  and  _105
REMARK   44  A    between atoms: _105  and  _106
REMARK   45  A    between atoms: _105  and  _108
REMARK   46  A    between atoms: _108  and  _109
REMARK   47  A    between atoms: _112  and  _114
REMARK   48  A    between atoms: _114  and  _115
REMARK   49  A    between atoms: _114  and  _117
REMARK   50  A    between atoms: _117  and  _118
REMARK   51  A    between atoms: _120  and  _122
REMARK   52  A    between atoms: _122  and  _123
REMARK   53  A    between atoms: _122  and  _125
REMARK   54  A    between atoms: _125  and  _126
REMARK   55  A    between atoms: _137  and  _138
REMARK   56  A    between atoms: _143  and  _145
REMARK   57  A    between atoms: _145  and  _146
REMARK   58  A    between atoms: _145  and  _148
REMARK   59  A    between atoms: _148  and  _149
REMARK   60  A    between atoms: _154  and  _156
REMARK   61  A    between atoms: _156  and  _157
REMARK   62  A    between atoms: _156  and  _159
REMARK   63  A    between atoms: _159  and  _160
REMARK   64  A    between atoms: _165  and  _167
REMARK   65  A    between atoms: _167  and  _168
REMARK   66  A    between atoms: _167  and  _170
REMARK   67  A    between atoms: _170  and  _171
REMARK   68  A    between atoms: _177  and  _178
REMARK   69  A    between atoms: _183  and  _185
REMARK   70  A    between atoms: _185  and  _186
REMARK   71  A    between atoms: _189  and  _191
REMARK   72  A    between atoms: _191  and  _192
REMARK   73  A    between atoms: _191  and  _194
REMARK   74  A    between atoms: _194  and  _195
REMARK   75  A    between atoms: _200  and  _201
REMARK   76  A    between atoms: _203  and  _205
REMARK   77  A    between atoms: _205  and  _206
REMARK   78  A    between atoms: _205  and  _208
REMARK   79  A    between atoms: _208  and  _209
REMARK   80  A    between atoms: _211  and  _213
REMARK   81  A    between atoms: _213  and  _214
REMARK   82  A    between atoms: _213  and  _216
REMARK   83  A    between atoms: _216  and  _217
REMARK   84  A    between atoms: _224  and  _225
REMARK   85  A    between atoms: _225  and  _241
REMARK   86  A    between atoms: _226  and  _228
REMARK   87  A    between atoms: _228  and  _229
REMARK   88  A    between atoms: _229  and  _230
REMARK   89  A    between atoms: _234  and  _236
REMARK   90  A    between atoms: _236  and  _237
REMARK   91  A    between atoms: _236  and  _244
REMARK   92  A    between atoms: _237  and  _238
REMARK   93  A    between atoms: _238  and  _239
REMARK   94  A    between atoms: _239  and  _240
REMARK   95  A    between atoms: _240  and  _241
REMARK   96  A    between atoms: _246  and  _248
REMARK   97  A    between atoms: _248  and  _249
REMARK   98  A    between atoms: _248  and  _251
REMARK   99  A    between atoms: _251  and  _252
REMARK  100  A    between atoms: _257  and  _258
REMARK  101  A    between atoms: _260  and  _262
REMARK  102  A    between atoms: _262  and  _263
REMARK  103  A    between atoms: _262  and  _265
REMARK  104  A    between atoms: _265  and  _266
REMARK  105  A    between atoms: _266  and  _267
REMARK  106  A    between atoms: _267  and  _268
REMARK  107  A    between atoms: _277  and  _279
REMARK  108  A    between atoms: _279  and  _280
REMARK  109  A    between atoms: _279  and  _282
REMARK  110  A    between atoms: _282  and  _283
REMARK  111  A    between atoms: _283  and  _284
REMARK  112  A    between atoms: _286  and  _288
REMARK  113  A    between atoms: _288  and  _289
REMARK  114  A    between atoms: _288  and  _291
REMARK  115  A    between atoms: _291  and  _292
REMARK  116  A    between atoms: _298  and  _300
REMARK  117  A    between atoms: _300  and  _301
REMARK  118  A    between atoms: _300  and  _303
REMARK  119  A    between atoms: _306  and  _308
REMARK  120  A    between atoms: _308  and  _309
REMARK  121  A    between atoms: _308  and  _311
REMARK  122  A    between atoms: _311  and  _312
REMARK  123  A    between atoms: _312  and  _313
REMARK  124  A    between atoms: _313  and  _314
REMARK  125  A    between atoms: _323  and  _325
REMARK  126  A    between atoms: _325  and  _326
REMARK  127  A    between atoms: _325  and  _328
REMARK  128  A    between atoms: _328  and  _329
REMARK  129  A    between atoms: _334  and  _336
REMARK  130  A    between atoms: _336  and  _337
REMARK  131  A    between atoms: _336  and  _339
REMARK  132  A    between atoms: _339  and  _340
REMARK  133  A    between atoms: _345  and  _346
REMARK  134  A    between atoms: _348  and  _350
REMARK  135  A    between atoms: _350  and  _351
REMARK  136  A    between atoms: _350  and  _353
REMARK  137  A    between atoms: _353  and  _354
REMARK  138  A    between atoms: _357  and  _359
REMARK  139  A    between atoms: _359  and  _360
REMARK  140  A    between atoms: _359  and  _362
REMARK  141  A    between atoms: _362  and  _363
REMARK  142  A    between atoms: _363  and  _364
REMARK  143  A    between atoms: _364  and  _365
REMARK  144  A    between atoms: _374  and  _376
REMARK  145  A    between atoms: _376  and  _377
REMARK  146  A    between atoms: _376  and  _379
REMARK  147  A    between atoms: _379  and  _380
REMARK  148  A    between atoms: _385  and  _386
REMARK  149  A    between atoms: _388  and  _390
REMARK  150  A    between atoms: _390  and  _391
REMARK  151  A    between atoms: _390  and  _393
REMARK  152  A    between atoms: _393  and  _394
REMARK  153  A    between atoms: _396  and  _398
REMARK  154  A    between atoms: _398  and  _399
REMARK  155  A    between atoms: _398  and  _401
REMARK  156  A    between atoms: _401  and  _402
REMARK                            x       y       z     vdW  Elec       q    Type
REMARK                         _______ _______ _______ _____ _____    ______ ____
ROOT
ATOM      1  NE  ARG A   1      30.234  31.884  11.979  0.00  0.00    -0.265 N 
ATOM      2  CZ  ARG A   1      29.467  32.814  11.421  0.00  0.00    +0.342 C 
ATOM      3  NH2 ARG A   1      28.573  33.484  12.148  0.00  0.00    -0.292 N 
ATOM      4 HH21 ARG A   1      28.471  33.281  13.163  0.00  0.00    +0.255 HD
ATOM      5 HH22 ARG A   1      27.978  34.210  11.700  0.00  0.00    +0.255 HD
ATOM      6  NH1 ARG A   1      29.566  33.050  10.117  0.00  0.00    -0.292 N 
ATOM      7 HH11 ARG A   1      28.969  33.777   9.673  0.00  0.00    +0.255 HD
ATOM      8 HH12 ARG A   1      30.241  32.508   9.540  0.00  0.00    +0.255 HD
ATOM      9  HE  ARG A   1      30.891  31.370  11.358  0.00  0.00    +0.259 HD
ENDROOT
BRANCH   1  10
ATOM     10  CD  ARG A   1      30.228  31.524  13.399  0.00  0.00    +0.174 C 
BRANCH  10  11
ATOM     11  CG  ARG A   1      31.541  30.774  13.770  0.00  0.00    +0.045 C 
BRANCH  11  12
ATOM     12  CB  ARG A   1      31.736  30.546  15.258  0.00  0.00    +0.029 C 
BRANCH  12  13
ATOM     13  CA  ARG A   1      33.110  29.996  15.684  0.00  0.00    +0.133 C 
BRANCH  13  14
ATOM     14  N   ARG A   1      33.218  30.052  17.145  0.00  0.00    -0.239 NA
ATOM     15  H   ARG A   1      32.428  30.440  17.699  0.00  0.00    +0.142 HD
ENDBRANCH  13  14
BRANCH  13  16
ATOM     16  C   ARG A   1      34.236  30.798  15.023  0.00  0.00    +0.224 C 
ATOM     17  O   ARG A   1      34.751  30.412  13.967  0.00  0.00    -0.287 OA
ENDBRANCH  13  16
ENDBRANCH  12  13
ENDBRANCH  11  12
ENDBRANCH  10  11
ENDBRANCH   1  10
TORSDOF 6
REMARK  Name = ../refined-set-2016/1toj/1toj_pocket.pdb
REMARK  156 active torsions:
REMARK  status: ('A' for Active; 'I' for Inactive)
REMARK    1  A    between atoms: _1  and  _3
REMARK    2  A    between atoms: _3  and  _4
REMARK    3  A    between atoms: _3  and  _6
REMARK    4  A    between atoms: _6  and  _7
REMARK    5  A    between atoms: _11  and  _12
REMARK    6  A    between atoms: _17  and  _19
REMARK    7  A    between atoms: _19  and  _20
REMARK    8  A    between atoms: _19  and  _22
REMARK    9  A    between atoms: _22  and  _23
REMARK   10  A    between atoms: _26  and  _28
REMARK   11  A    between atoms: _28  and  _29
REMARK   12  A    between atoms: _28  and  _31
REMARK   13  A    between atoms: _31  and  _32
REMARK   14  A    between atoms: _35  and  _37
REMARK   15  A    between atoms: _37  and  _38
REMARK   16  A    between atoms: _40  and  _42
REMARK   17  A    between atoms: _42  and  _43
REMARK   18  A    between atoms: _42  and  _45
REMARK   19  A    between atoms: _45  and  _46
REMARK   20  A    between atoms: _49  and  _51
REMARK   21  A    between atoms: _51  and  _52
REMARK   22  A    between atoms: _51  and  _54
REMARK   23  A    between atoms: _54  and  _55
REMARK   24  A    between atoms: _58  and  _60
REMARK   25  A    between atoms: _60  and  _61
REMARK   26  A    between atoms: _63  and  _65
REMARK   27  A    between atoms: _65  and  _66
REMARK   28  A    between atoms: _65  and  _68
REMARK   29  A    between atoms: _68  and  _69
REMARK   30  A    between atoms: _72  and  _74
REMARK   31  A    between atoms: _74  and  _75
REMARK   32  A    between atoms: _77  and  _79
REMARK   33  A    between atoms: _79  and  _80
REMARK   34  A    between atoms: _79  and  _82
REMARK   35  A    between atoms: _85  and  _87
REMARK   36  A    between atoms: _87  and  _88
REMARK   37  A    between atoms: _90  and  _92
REMARK   38  A    between atoms: _92  and  _93
REMARK   39  A    between atoms: _92  and  _95
REMARK   40  A    between atoms: _95  and  _96
REMARK   41  A    between atoms: _98  and  _100
REMARK   42  A    between atoms: _100  and  _101
REMARK   43  A    between atoms: _103  and  _105
REMARK   44  A    between atoms: _105  and  _106
REMARK   45  A    between atoms: _105  and  _108
REMARK   46  A    between atoms: _108  and  _109
REMARK   47  A    between atoms: _112  and  _114
REMARK   48  A    between atoms: _114  and  _115
REMARK   49  A    between atoms: _114  and  _117
REMARK   50  A    between atoms: _117  and  _118
REMARK   51  A    between atoms: _120  and  _122
REMARK   52  A    between atoms: _122  and  _123
REMARK   53  A    between atoms: _122  and  _125
REMARK   54  A    between atoms: _125  and  _126
REMARK   55  A    between atoms: _137  and  _138
REMARK   56  A    between atoms: _143  and  _145
REMARK   57  A    between atoms: _145  and  _146
REMARK   58  A    between atoms: _145  and  _148
REMARK   59  A    between atoms: _148  and  _149
REMARK   60  A    between atoms: _154  and  _156
REMARK   61  A    between atoms: _156  and  _157
REMARK   62  A    between atoms: _156  and  _159
REMARK   63  A    between atoms: _159  and  _160
REMARK   64  A    between atoms: _165  and  _167
REMARK   65  A    between atoms: _167  and  _168
REMARK   66  A    between atoms: _167  and  _170
REMARK   67  A    between atoms: _170  and  _171
REMARK   68  A    between atoms: _177  and  _178
REMARK   69  A    between atoms: _183  and  _185
REMARK   70  A    between atoms: _185  and  _186
REMARK   71  A    between atoms: _189  and  _191
REMARK   72  A    between atoms: _191  and  _192
REMARK   73  A    between atoms: _191  and  _194
REMARK   74  A    between atoms: _194  and  _195
REMARK   75  A    between atoms: _200  and  _201
REMARK   76  A    between atoms: _203  and  _205
REMARK   77  A    between atoms: _205  and  _206
REMARK   78  A    between atoms: _205  and  _208
REMARK   79  A    between atoms: _208  and  _209
REMARK   80  A    between atoms: _211  and  _213
REMARK   81  A    between atoms: _213  and  _214
REMARK   82  A    between atoms: _213  and  _216
REMARK   83  A    between atoms: _216  and  _217
REMARK   84  A    between atoms: _224  and  _225
REMARK   85  A    between atoms: _225  and  _241
REMARK   86  A    between atoms: _226  and  _228
REMARK   87  A    between atoms: _228  and  _229
REMARK   88  A    between atoms: _229  and  _230
REMARK   89  A    between atoms: _234  and  _236
REMARK   90  A    between atoms: _236  and  _237
REMARK   91  A    between atoms: _236  and  _244
REMARK   92  A    between atoms: _237  and  _238
REMARK   93  A    between atoms: _238  and  _239
REMARK   94  A    between atoms: _239  and  _240
REMARK   95  A    between atoms: _240  and  _241
REMARK   96  A    between atoms: _246  and  _248
REMARK   97  A    between atoms: _248  and  _249
REMARK   98  A    between atoms: _248  and  _251
REMARK   99  A    between atoms: _251  and  _252
REMARK  100  A    between atoms: _257  and  _258
REMARK  101  A    between atoms: _260  and  _262
REMARK  102  A    between atoms: _262  and  _263
REMARK  103  A    between atoms: _262  and  _265
REMARK  104  A    between atoms: _265  and  _266
REMARK  105  A    between atoms: _266  and  _267
REMARK  106  A    between atoms: _267  and  _268
REMARK  107  A    between atoms: _277  and  _279
REMARK  108  A    between atoms: _279  and  _280
REMARK  109  A    between atoms: _279  and  _282
REMARK  110  A    between atoms: _282  and  _283
REMARK  111  A    between atoms: _283  and  _284
REMARK  112  A    between atoms: _286  and  _288
REMARK  113  A    between atoms: _288  and  _289
REMARK  114  A    between atoms: _288  and  _291
REMARK  115  A    between atoms: _291  and  _292
REMARK  116  A    between atoms: _298  and  _300
REMARK  117  A    between atoms: _300  and  _301
REMARK  118  A    between atoms: _300  and  _303
REMARK  119  A    between atoms: _306  and  _308
REMARK  120  A    between atoms: _308  and  _309
REMARK  121  A    between atoms: _308  and  _311
REMARK  122  A    between atoms: _311  and  _312
REMARK  123  A    between atoms: _312  and  _313
REMARK  124  A    between atoms: _313  and  _314
REMARK  125  A    between atoms: _323  and  _325
REMARK  126  A    between atoms: _325  and  _326
REMARK  127  A    between atoms: _325  and  _328
REMARK  128  A    between atoms: _328  and  _329
REMARK  129  A    between atoms: _334  and  _336
REMARK  130  A    between atoms: _336  and  _337
REMARK  131  A    between atoms: _336  and  _339
REMARK  132  A    between atoms: _339  and  _340
REMARK  133  A    between atoms: _345  and  _346
REMARK  134  A    between atoms: _348  and  _350
REMARK  135  A    between atoms: _350  and  _351
REMARK  136  A    between atoms: _350  and  _353
REMARK  137  A    between atoms: _353  and  _354
REMARK  138  A    between atoms: _357  and  _359
REMARK  139  A    between atoms: _359  and  _360
REMARK  140  A    between atoms: _359  and  _362
REMARK  141  A    between atoms: _362  and  _363
REMARK  142  A    between atoms: _363  and  _364
REMARK  143  A    between atoms: _364  and  _365
REMARK  144  A    between atoms: _374  and  _376
REMARK  145  A    between atoms: _376  and  _377
REMARK  146  A    between atoms: _376  and  _379
REMARK  147  A    between atoms: _379  and  _380
REMARK  148  A    between atoms: _385  and  _386
REMARK  149  A    between atoms: _388  and  _390
REMARK  150  A    between atoms: _390  and  _391
REMARK  151  A    between atoms: _390  and  _393
REMARK  152  A    between atoms: _393  and  _394
REMARK  153  A    between atoms: _396  and  _398
REMARK  154  A    between atoms: _398  and  _399
REMARK  155  A    between atoms: _398  and  _401
REMARK  156  A    between atoms: _401  and  _402
REMARK                            x       y       z     vdW  Elec       q    Type
REMARK                         _______ _______ _______ _____ _____    ______ ____
ROOT
ATOM      1  C   TYR A   1      37.390  26.097  15.528  0.00  0.00    +0.239 C 
ATOM      2  N   SER A   2      36.243  26.772  15.610  0.00  0.00    -0.295 N 
ATOM      3  H   SER A   2      36.251  27.680  16.117  0.00  0.00    +0.150 HD
ATOM      4  O   TYR A   1      37.469  24.930  15.146  0.00  0.00    -0.274 OA
ENDROOT
BRANCH   1   5
ATOM      5  CA  TYR A   1      38.653  26.854  16.005  0.00  0.00    +0.149 C 
BRANCH   5   6
ATOM      6  N   TYR A   1      38.312  28.189  16.552  0.00  0.00    -0.238 NA
ATOM      7  H   TYR A   1      37.759  28.254  17.430  0.00  0.00    +0.142 HD
ENDBRANCH   5   6
BRANCH   5   8
ATOM      8  CB  TYR A   1      39.440  26.023  17.044  0.00  0.00    +0.053 C 
BRANCH   8   9
ATOM      9  CG  TYR A   1      38.701  25.952  18.358  0.00  0.00    -0.020 A 
ATOM     10  CD2 TYR A   1      38.982  26.852  19.389  0.00  0.00    -0.001 A 
ATOM     11  CE2 TYR A   1      38.257  26.840  20.559  0.00  0.00    +0.036 A 
ATOM     12  CZ  TYR A   1      37.225  25.915  20.715  0.00  0.00    +0.134 A 
ATOM     13  CE1 TYR A   1      36.947  24.994  19.723  0.00  0.00    +0.036 A 
ATOM     14  CD1 TYR A   1      37.679  25.027  18.541  0.00  0.00    -0.001 A 
BRANCH  12  15
ATOM     15  OH  TYR A   1      36.482  25.910  21.872  0.00  0.00    -0.506 OA
ATOM     16  HH  TYR A   1      35.797  25.197  21.820  0.00  0.00    +0.292 HD
ENDBRANCH  12  15
ENDBRANCH   8   9
ENDBRANCH   5   8
ENDBRANCH   1   5
BRANCH   2  17
ATOM     17  CA  SER A   2      34.961  26.318  15.030  0.00  0.00    +0.178 C 
BRANCH  17  18
ATOM     18  C   SER A   2      34.215  25.223  15.813  0.00  0.00    +0.243 C 
ATOM     19  N   SER A   3      34.884  24.108  16.140  0.00  0.00    -0.296 N 
ATOM     20  H   SER A   3      35.856  23.984  15.792  0.00  0.00    +0.150 HD
ATOM     21  O   SER A   2      33.049  25.402  16.134  0.00  0.00    -0.273 OA
BRANCH  19  22
ATOM     22  CA  SER A   3      34.289  23.056  16.974  0.00  0.00    +0.166 C 
BRANCH  22  23
ATOM     23  C   SER A   3      35.424  22.257  17.614  0.00  0.00    +0.229 C 
ATOM     24  O   SER A   3      36.535  22.290  17.104  0.00  0.00    -0.286 OA
ENDBRANCH  22  23
BRANCH  22  25
ATOM     25  CB  SER A   3      33.365  22.152  16.143  0.00  0.00    +0.165 C 
BRANCH  25  26
ATOM     26  OG  SER A   3      34.089  21.399  15.185  0.00  0.00    -0.380 OA
ATOM     27  H   SER A   3      34.558  22.015  14.569  0.00  0.00    +0.211 HD
ENDBRANCH  25  26
ENDBRANCH  22  25
ENDBRANCH  19  22
ENDBRANCH  17  18
BRANCH  17  28
ATOM     28  CB  SER A   2      35.127  25.983  13.527  0.00  0.00    +0.166 C 
BRANCH  28  29
ATOM     29  OG  SER A   2      33.914  25.508  12.957  0.00  0.00    -0.380 OA
ATOM     30  H   SER A   2      33.214  26.203  13.047  0.00  0.00    +0.211 HD
ENDBRANCH  28  29
ENDBRANCH  17  28
ENDBRANCH   2  17
TORSDOF 13
REMARK  Name = ../refined-set-2016/1toj/1toj_pocket.pdb
REMARK  156 active torsions:
REMARK  status: ('A' for Active; 'I' for Inactive)
REMARK    1  A    between atoms: _1  and  _3
REMARK    2  A    between atoms: _3  and  _4
REMARK    3  A    between atoms: _3  and  _6
REMARK    4  A    between atoms: _6  and  _7
REMARK    5  A    between atoms: _11  and  _12
REMARK    6  A    between atoms: _17  and  _19
REMARK    7  A    between atoms: _19  and  _20
REMARK    8  A    between atoms: _19  and  _22
REMARK    9  A    between atoms: _22  and  _23
REMARK   10  A    between atoms: _26  and  _28
REMARK   11  A    between atoms: _28  and  _29
REMARK   12  A    between atoms: _28  and  _31
REMARK   13  A    between atoms: _31  and  _32
REMARK   14  A    between atoms: _35  and  _37
REMARK   15  A    between atoms: _37  and  _38
REMARK   16  A    between atoms: _40  and  _42
REMARK   17  A    between atoms: _42  and  _43
REMARK   18  A    between atoms: _42  and  _45
REMARK   19  A    between atoms: _45  and  _46
REMARK   20  A    between atoms: _49  and  _51
REMARK   21  A    between atoms: _51  and  _52
REMARK   22  A    between atoms: _51  and  _54
REMARK   23  A    between atoms: _54  and  _55
REMARK   24  A    between atoms: _58  and  _60
REMARK   25  A    between atoms: _60  and  _61
REMARK   26  A    between atoms: _63  and  _65
REMARK   27  A    between atoms: _65  and  _66
REMARK   28  A    between atoms: _65  and  _68
REMARK   29  A    between atoms: _68  and  _69
REMARK   30  A    between atoms: _72  and  _74
REMARK   31  A    between atoms: _74  and  _75
REMARK   32  A    between atoms: _77  and  _79
REMARK   33  A    between atoms: _79  and  _80
REMARK   34  A    between atoms: _79  and  _82
REMARK   35  A    between atoms: _85  and  _87
REMARK   36  A    between atoms: _87  and  _88
REMARK   37  A    between atoms: _90  and  _92
REMARK   38  A    between atoms: _92  and  _93
REMARK   39  A    between atoms: _92  and  _95
REMARK   40  A    between atoms: _95  and  _96
REMARK   41  A    between atoms: _98  and  _100
REMARK   42  A    between atoms: _100  and  _101
REMARK   43  A    between atoms: _103  and  _105
REMARK   44  A    between atoms: _105  and  _106
REMARK   45  A    between atoms: _105  and  _108
REMARK   46  A    between atoms: _108  and  _109
REMARK   47  A    between atoms: _112  and  _114
REMARK   48  A    between atoms: _114  and  _115
REMARK   49  A    between atoms: _114  and  _117
REMARK   50  A    between atoms: _117  and  _118
REMARK   51  A    between atoms: _120  and  _122
REMARK   52  A    between atoms: _122  and  _123
REMARK   53  A    between atoms: _122  and  _125
REMARK   54  A    between atoms: _125  and  _126
REMARK   55  A    between atoms: _137  and  _138
REMARK   56  A    between atoms: _143  and  _145
REMARK   57  A    between atoms: _145  and  _146
REMARK   58  A    between atoms: _145  and  _148
REMARK   59  A    between atoms: _148  and  _149
REMARK   60  A    between atoms: _154  and  _156
REMARK   61  A    between atoms: _156  and  _157
REMARK   62  A    between atoms: _156  and  _159
REMARK   63  A    between atoms: _159  and  _160
REMARK   64  A    between atoms: _165  and  _167
REMARK   65  A    between atoms: _167  and  _168
REMARK   66  A    between atoms: _167  and  _170
REMARK   67  A    between atoms: _170  and  _171
REMARK   68  A    between atoms: _177  and  _178
REMARK   69  A    between atoms: _183  and  _185
REMARK   70  A    between atoms: _185  and  _186
REMARK   71  A    between atoms: _189  and  _191
REMARK   72  A    between atoms: _191  and  _192
REMARK   73  A    between atoms: _191  and  _194
REMARK   74  A    between atoms: _194  and  _195
REMARK   75  A    between atoms: _200  and  _201
REMARK   76  A    between atoms: _203  and  _205
REMARK   77  A    between atoms: _205  and  _206
REMARK   78  A    between atoms: _205  and  _208
REMARK   79  A    between atoms: _208  and  _209
REMARK   80  A    between atoms: _211  and  _213
REMARK   81  A    between atoms: _213  and  _214
REMARK   82  A    between atoms: _213  and  _216
REMARK   83  A    between atoms: _216  and  _217
REMARK   84  A    between atoms: _224  and  _225
REMARK   85  A    between atoms: _225  and  _241
REMARK   86  A    between atoms: _226  and  _228
REMARK   87  A    between atoms: _228  and  _229
REMARK   88  A    between atoms: _229  and  _230
REMARK   89  A    between atoms: _234  and  _236
REMARK   90  A    between atoms: _236  and  _237
REMARK   91  A    between atoms: _236  and  _244
REMARK   92  A    between atoms: _237  and  _238
REMARK   93  A    between atoms: _238  and  _239
REMARK   94  A    between atoms: _239  and  _240
REMARK   95  A    between atoms: _240  and  _241
REMARK   96  A    between atoms: _246  and  _248
REMARK   97  A    between atoms: _248  and  _249
REMARK   98  A    between atoms: _248  and  _251
REMARK   99  A    between atoms: _251  and  _252
REMARK  100  A    between atoms: _257  and  _258
REMARK  101  A    between atoms: _260  and  _262
REMARK  102  A    between atoms: _262  and  _263
REMARK  103  A    between atoms: _262  and  _265
REMARK  104  A    between atoms: _265  and  _266
REMARK  105  A    between atoms: _266  and  _267
REMARK  106  A    between atoms: _267  and  _268
REMARK  107  A    between atoms: _277  and  _279
REMARK  108  A    between atoms: _279  and  _280
REMARK  109  A    between atoms: _279  and  _282
REMARK  110  A    between atoms: _282  and  _283
REMARK  111  A    between atoms: _283  and  _284
REMARK  112  A    between atoms: _286  and  _288
REMARK  113  A    between atoms: _288  and  _289
REMARK  114  A    between atoms: _288  and  _291
REMARK  115  A    between atoms: _291  and  _292
REMARK  116  A    between atoms: _298  and  _300
REMARK  117  A    between atoms: _300  and  _301
REMARK  118  A    between atoms: _300  and  _303
REMARK  119  A    between atoms: _306  and  _308
REMARK  120  A    between atoms: _308  and  _309
REMARK  121  A    between atoms: _308  and  _311
REMARK  122  A    between atoms: _311  and  _312
REMARK  123  A    between atoms: _312  and  _313
REMARK  124  A    between atoms: _313  and  _314
REMARK  125  A    between atoms: _323  and  _325
REMARK  126  A    between atoms: _325  and  _326
REMARK  127  A    between atoms: _325  and  _328
REMARK  128  A    between atoms: _328  and  _329
REMARK  129  A    between atoms: _334  and  _336
REMARK  130  A    between atoms: _336  and  _337
REMARK  131  A    between atoms: _336  and  _339
REMARK  132  A    between atoms: _339  and  _340
REMARK  133  A    between atoms: _345  and  _346
REMARK  134  A    between atoms: _348  and  _350
REMARK  135  A    between atoms: _350  and  _351
REMARK  136  A    between atoms: _350  and  _353
REMARK  137  A    between atoms: _353  and  _354
REMARK  138  A    between atoms: _357  and  _359
REMARK  139  A    between atoms: _359  and  _360
REMARK  140  A    between atoms: _359  and  _362
REMARK  141  A    between atoms: _362  and  _363
REMARK  142  A    between atoms: _363  and  _364
REMARK  143  A    between atoms: _364  and  _365
REMARK  144  A    between atoms: _374  and  _376
REMARK  145  A    between atoms: _376  and  _377
REMARK  146  A    between atoms: _376  and  _379
REMARK  147  A    between atoms: _379  and  _380
REMARK  148  A    between atoms: _385  and  _386
REMARK  149  A    between atoms: _388  and  _390
REMARK  150  A    between atoms: _390  and  _391
REMARK  151  A    between atoms: _390  and  _393
REMARK  152  A    between atoms: _393  and  _394
REMARK  153  A    between atoms: _396  and  _398
REMARK  154  A    between atoms: _398  and  _399
REMARK  155  A    between atoms: _398  and  _401
REMARK  156  A    between atoms: _401  and  _402
REMARK                            x       y       z     vdW  Elec       q    Type
REMARK                         _______ _______ _______ _____ _____    ______ ____
ROOT
ATOM      1  O   HOH     1      37.448  25.688  -0.628  0.00  0.00    +0.000 OA
ENDROOT
TORSDOF 0
REMARK  Name = ../refined-set-2016/1toj/1toj_pocket.pdb
REMARK  156 active torsions:
REMARK  status: ('A' for Active; 'I' for Inactive)
REMARK    1  A    between atoms: _1  and  _3
REMARK    2  A    between atoms: _3  and  _4
REMARK    3  A    between atoms: _3  and  _6
REMARK    4  A    between atoms: _6  and  _7
REMARK    5  A    between atoms: _11  and  _12
REMARK    6  A    between atoms: _17  and  _19
REMARK    7  A    between atoms: _19  and  _20
REMARK    8  A    between atoms: _19  and  _22
REMARK    9  A    between atoms: _22  and  _23
REMARK   10  A    between atoms: _26  and  _28
REMARK   11  A    between atoms: _28  and  _29
REMARK   12  A    between atoms: _28  and  _31
REMARK   13  A    between atoms: _31  and  _32
REMARK   14  A    between atoms: _35  and  _37
REMARK   15  A    between atoms: _37  and  _38
REMARK   16  A    between atoms: _40  and  _42
REMARK   17  A    between atoms: _42  and  _43
REMARK   18  A    between atoms: _42  and  _45
REMARK   19  A    between atoms: _45  and  _46
REMARK   20  A    between atoms: _49  and  _51
REMARK   21  A    between atoms: _51  and  _52
REMARK   22  A    between atoms: _51  and  _54
REMARK   23  A    between atoms: _54  and  _55
REMARK   24  A    between atoms: _58  and  _60
REMARK   25  A    between atoms: _60  and  _61
REMARK   26  A    between atoms: _63  and  _65
REMARK   27  A    between atoms: _65  and  _66
REMARK   28  A    between atoms: _65  and  _68
REMARK   29  A    between atoms: _68  and  _69
REMARK   30  A    between atoms: _72  and  _74
REMARK   31  A    between atoms: _74  and  _75
REMARK   32  A    between atoms: _77  and  _79
REMARK   33  A    between atoms: _79  and  _80
REMARK   34  A    between atoms: _79  and  _82
REMARK   35  A    between atoms: _85  and  _87
REMARK   36  A    between atoms: _87  and  _88
REMARK   37  A    between atoms: _90  and  _92
REMARK   38  A    between atoms: _92  and  _93
REMARK   39  A    between atoms: _92  and  _95
REMARK   40  A    between atoms: _95  and  _96
REMARK   41  A    between atoms: _98  and  _100
REMARK   42  A    between atoms: _100  and  _101
REMARK   43  A    between atoms: _103  and  _105
REMARK   44  A    between atoms: _105  and  _106
REMARK   45  A    between atoms: _105  and  _108
REMARK   46  A    between atoms: _108  and  _109
REMARK   47  A    between atoms: _112  and  _114
REMARK   48  A    between atoms: _114  and  _115
REMARK   49  A    between atoms: _114  and  _117
REMARK   50  A    between atoms: _117  and  _118
REMARK   51  A    between atoms: _120  and  _122
REMARK   52  A    between atoms: _122  and  _123
REMARK   53  A    between atoms: _122  and  _125
REMARK   54  A    between atoms: _125  and  _126
REMARK   55  A    between atoms: _137  and  _138
REMARK   56  A    between atoms: _143  and  _145
REMARK   57  A    between atoms: _145  and  _146
REMARK   58  A    between atoms: _145  and  _148
REMARK   59  A    between atoms: _148  and  _149
REMARK   60  A    between atoms: _154  and  _156
REMARK   61  A    between atoms: _156  and  _157
REMARK   62  A    between atoms: _156  and  _159
REMARK   63  A    between atoms: _159  and  _160
REMARK   64  A    between atoms: _165  and  _167
REMARK   65  A    between atoms: _167  and  _168
REMARK   66  A    between atoms: _167  and  _170
REMARK   67  A    between atoms: _170  and  _171
REMARK   68  A    between atoms: _177  and  _178
REMARK   69  A    between atoms: _183  and  _185
REMARK   70  A    between atoms: _185  and  _186
REMARK   71  A    between atoms: _189  and  _191
REMARK   72  A    between atoms: _191  and  _192
REMARK   73  A    between atoms: _191  and  _194
REMARK   74  A    between atoms: _194  and  _195
REMARK   75  A    between atoms: _200  and  _201
REMARK   76  A    between atoms: _203  and  _205
REMARK   77  A    between atoms: _205  and  _206
REMARK   78  A    between atoms: _205  and  _208
REMARK   79  A    between atoms: _208  and  _209
REMARK   80  A    between atoms: _211  and  _213
REMARK   81  A    between atoms: _213  and  _214
REMARK   82  A    between atoms: _213  and  _216
REMARK   83  A    between atoms: _216  and  _217
REMARK   84  A    between atoms: _224  and  _225
REMARK   85  A    between atoms: _225  and  _241
REMARK   86  A    between atoms: _226  and  _228
REMARK   87  A    between atoms: _228  and  _229
REMARK   88  A    between atoms: _229  and  _230
REMARK   89  A    between atoms: _234  and  _236
REMARK   90  A    between atoms: _236  and  _237
REMARK   91  A    between atoms: _236  and  _244
REMARK   92  A    between atoms: _237  and  _238
REMARK   93  A    between atoms: _238  and  _239
REMARK   94  A    between atoms: _239  and  _240
REMARK   95  A    between atoms: _240  and  _241
REMARK   96  A    between atoms: _246  and  _248
REMARK   97  A    between atoms: _248  and  _249
REMARK   98  A    between atoms: _248  and  _251
REMARK   99  A    between atoms: _251  and  _252
REMARK  100  A    between atoms: _257  and  _258
REMARK  101  A    between atoms: _260  and  _262
REMARK  102  A    between atoms: _262  and  _263
REMARK  103  A    between atoms: _262  and  _265
REMARK  104  A    between atoms: _265  and  _266
REMARK  105  A    between atoms: _266  and  _267
REMARK  106  A    between atoms: _267  and  _268
REMARK  107  A    between atoms: _277  and  _279
REMARK  108  A    between atoms: _279  and  _280
REMARK  109  A    between atoms: _279  and  _282
REMARK  110  A    between atoms: _282  and  _283
REMARK  111  A    between atoms: _283  and  _284
REMARK  112  A    between atoms: _286  and  _288
REMARK  113  A    between atoms: _288  and  _289
REMARK  114  A    between atoms: _288  and  _291
REMARK  115  A    between atoms: _291  and  _292
REMARK  116  A    between atoms: _298  and  _300
REMARK  117  A    between atoms: _300  and  _301
REMARK  118  A    between atoms: _300  and  _303
REMARK  119  A    between atoms: _306  and  _308
REMARK  120  A    between atoms: _308  and  _309
REMARK  121  A    between atoms: _308  and  _311
REMARK  122  A    between atoms: _311  and  _312
REMARK  123  A    between atoms: _312  and  _313
REMARK  124  A    between atoms: _313  and  _314
REMARK  125  A    between atoms: _323  and  _325
REMARK  126  A    between atoms: _325  and  _326
REMARK  127  A    between atoms: _325  and  _328
REMARK  128  A    between atoms: _328  and  _329
REMARK  129  A    between atoms: _334  and  _336
REMARK  130  A    between atoms: _336  and  _337
REMARK  131  A    between atoms: _336  and  _339
REMARK  132  A    between atoms: _339  and  _340
REMARK  133  A    between atoms: _345  and  _346
REMARK  134  A    between atoms: _348  and  _350
REMARK  135  A    between atoms: _350  and  _351
REMARK  136  A    between atoms: _350  and  _353
REMARK  137  A    between atoms: _353  and  _354
REMARK  138  A    between atoms: _357  and  _359
REMARK  139  A    between atoms: _359  and  _360
REMARK  140  A    between atoms: _359  and  _362
REMARK  141  A    between atoms: _362  and  _363
REMARK  142  A    between atoms: _363  and  _364
REMARK  143  A    between atoms: _364  and  _365
REMARK  144  A    between atoms: _374  and  _376
REMARK  145  A    between atoms: _376  and  _377
REMARK  146  A    between atoms: _376  and  _379
REMARK  147  A    between atoms: _379  and  _380
REMARK  148  A    between atoms: _385  and  _386
REMARK  149  A    between atoms: _388  and  _390
REMARK  150  A    between atoms: _390  and  _391
REMARK  151  A    between atoms: _390  and  _393
REMARK  152  A    between atoms: _393  and  _394
REMARK  153  A    between atoms: _396  and  _398
REMARK  154  A    between atoms: _398  and  _399
REMARK  155  A    between atoms: _398  and  _401
REMARK  156  A    between atoms: _401  and  _402
REMARK                            x       y       z     vdW  Elec       q    Type
REMARK                         _______ _______ _______ _____ _____    ______ ____
ROOT
ATOM      1  O   HOH     1      31.741  29.233   6.974  0.00  0.00    +0.000 OA
ENDROOT
TORSDOF 0
REMARK  Name = ../refined-set-2016/1toj/1toj_pocket.pdb
REMARK  156 active torsions:
REMARK  status: ('A' for Active; 'I' for Inactive)
REMARK    1  A    between atoms: _1  and  _3
REMARK    2  A    between atoms: _3  and  _4
REMARK    3  A    between atoms: _3  and  _6
REMARK    4  A    between atoms: _6  and  _7
REMARK    5  A    between atoms: _11  and  _12
REMARK    6  A    between atoms: _17  and  _19
REMARK    7  A    between atoms: _19  and  _20
REMARK    8  A    between atoms: _19  and  _22
REMARK    9  A    between atoms: _22  and  _23
REMARK   10  A    between atoms: _26  and  _28
REMARK   11  A    between atoms: _28  and  _29
REMARK   12  A    between atoms: _28  and  _31
REMARK   13  A    between atoms: _31  and  _32
REMARK   14  A    between atoms: _35  and  _37
REMARK   15  A    between atoms: _37  and  _38
REMARK   16  A    between atoms: _40  and  _42
REMARK   17  A    between atoms: _42  and  _43
REMARK   18  A    between atoms: _42  and  _45
REMARK   19  A    between atoms: _45  and  _46
REMARK   20  A    between atoms: _49  and  _51
REMARK   21  A    between atoms: _51  and  _52
REMARK   22  A    between atoms: _51  and  _54
REMARK   23  A    between atoms: _54  and  _55
REMARK   24  A    between atoms: _58  and  _60
REMARK   25  A    between atoms: _60  and  _61
REMARK   26  A    between atoms: _63  and  _65
REMARK   27  A    between atoms: _65  and  _66
REMARK   28  A    between atoms: _65  and  _68
REMARK   29  A    between atoms: _68  and  _69
REMARK   30  A    between atoms: _72  and  _74
REMARK   31  A    between atoms: _74  and  _75
REMARK   32  A    between atoms: _77  and  _79
REMARK   33  A    between atoms: _79  and  _80
REMARK   34  A    between atoms: _79  and  _82
REMARK   35  A    between atoms: _85  and  _87
REMARK   36  A    between atoms: _87  and  _88
REMARK   37  A    between atoms: _90  and  _92
REMARK   38  A    between atoms: _92  and  _93
REMARK   39  A    between atoms: _92  and  _95
REMARK   40  A    between atoms: _95  and  _96
REMARK   41  A    between atoms: _98  and  _100
REMARK   42  A    between atoms: _100  and  _101
REMARK   43  A    between atoms: _103  and  _105
REMARK   44  A    between atoms: _105  and  _106
REMARK   45  A    between atoms: _105  and  _108
REMARK   46  A    between atoms: _108  and  _109
REMARK   47  A    between atoms: _112  and  _114
REMARK   48  A    between atoms: _114  and  _115
REMARK   49  A    between atoms: _114  and  _117
REMARK   50  A    between atoms: _117  and  _118
REMARK   51  A    between atoms: _120  and  _122
REMARK   52  A    between atoms: _122  and  _123
REMARK   53  A    between atoms: _122  and  _125
REMARK   54  A    between atoms: _125  and  _126
REMARK   55  A    between atoms: _137  and  _138
REMARK   56  A    between atoms: _143  and  _145
REMARK   57  A    between atoms: _145  and  _146
REMARK   58  A    between atoms: _145  and  _148
REMARK   59  A    between atoms: _148  and  _149
REMARK   60  A    between atoms: _154  and  _156
REMARK   61  A    between atoms: _156  and  _157
REMARK   62  A    between atoms: _156  and  _159
REMARK   63  A    between atoms: _159  and  _160
REMARK   64  A    between atoms: _165  and  _167
REMARK   65  A    between atoms: _167  and  _168
REMARK   66  A    between atoms: _167  and  _170
REMARK   67  A    between atoms: _170  and  _171
REMARK   68  A    between atoms: _177  and  _178
REMARK   69  A    between atoms: _183  and  _185
REMARK   70  A    between atoms: _185  and  _186
REMARK   71  A    between atoms: _189  and  _191
REMARK   72  A    between atoms: _191  and  _192
REMARK   73  A    between atoms: _191  and  _194
REMARK   74  A    between atoms: _194  and  _195
REMARK   75  A    between atoms: _200  and  _201
REMARK   76  A    between atoms: _203  and  _205
REMARK   77  A    between atoms: _205  and  _206
REMARK   78  A    between atoms: _205  and  _208
REMARK   79  A    between atoms: _208  and  _209
REMARK   80  A    between atoms: _211  and  _213
REMARK   81  A    between atoms: _213  and  _214
REMARK   82  A    between atoms: _213  and  _216
REMARK   83  A    between atoms: _216  and  _217
REMARK   84  A    between atoms: _224  and  _225
REMARK   85  A    between atoms: _225  and  _241
REMARK   86  A    between atoms: _226  and  _228
REMARK   87  A    between atoms: _228  and  _229
REMARK   88  A    between atoms: _229  and  _230
REMARK   89  A    between atoms: _234  and  _236
REMARK   90  A    between atoms: _236  and  _237
REMARK   91  A    between atoms: _236  and  _244
REMARK   92  A    between atoms: _237  and  _238
REMARK   93  A    between atoms: _238  and  _239
REMARK   94  A    between atoms: _239  and  _240
REMARK   95  A    between atoms: _240  and  _241
REMARK   96  A    between atoms: _246  and  _248
REMARK   97  A    between atoms: _248  and  _249
REMARK   98  A    between atoms: _248  and  _251
REMARK   99  A    between atoms: _251  and  _252
REMARK  100  A    between atoms: _257  and  _258
REMARK  101  A    between atoms: _260  and  _262
REMARK  102  A    between atoms: _262  and  _263
REMARK  103  A    between atoms: _262  and  _265
REMARK  104  A    between atoms: _265  and  _266
REMARK  105  A    between atoms: _266  and  _267
REMARK  106  A    between atoms: _267  and  _268
REMARK  107  A    between atoms: _277  and  _279
REMARK  108  A    between atoms: _279  and  _280
REMARK  109  A    between atoms: _279  and  _282
REMARK  110  A    between atoms: _282  and  _283
REMARK  111  A    between atoms: _283  and  _284
REMARK  112  A    between atoms: _286  and  _288
REMARK  113  A    between atoms: _288  and  _289
REMARK  114  A    between atoms: _288  and  _291
REMARK  115  A    between atoms: _291  and  _292
REMARK  116  A    between atoms: _298  and  _300
REMARK  117  A    between atoms: _300  and  _301
REMARK  118  A    between atoms: _300  and  _303
REMARK  119  A    between atoms: _306  and  _308
REMARK  120  A    between atoms: _308  and  _309
REMARK  121  A    between atoms: _308  and  _311
REMARK  122  A    between atoms: _311  and  _312
REMARK  123  A    between atoms: _312  and  _313
REMARK  124  A    between atoms: _313  and  _314
REMARK  125  A    between atoms: _323  and  _325
REMARK  126  A    between atoms: _325  and  _326
REMARK  127  A    between atoms: _325  and  _328
REMARK  128  A    between atoms: _328  and  _329
REMARK  129  A    between atoms: _334  and  _336
REMARK  130  A    between atoms: _336  and  _337
REMARK  131  A    between atoms: _336  and  _339
REMARK  132  A    between atoms: _339  and  _340
REMARK  133  A    between atoms: _345  and  _346
REMARK  134  A    between atoms: _348  and  _350
REMARK  135  A    between atoms: _350  and  _351
REMARK  136  A    between atoms: _350  and  _353
REMARK  137  A    between atoms: _353  and  _354
REMARK  138  A    between atoms: _357  and  _359
REMARK  139  A    between atoms: _359  and  _360
REMARK  140  A    between atoms: _359  and  _362
REMARK  141  A    between atoms: _362  and  _363
REMARK  142  A    between atoms: _363  and  _364
REMARK  143  A    between atoms: _364  and  _365
REMARK  144  A    between atoms: _374  and  _376
REMARK  145  A    between atoms: _376  and  _377
REMARK  146  A    between atoms: _376  and  _379
REMARK  147  A    between atoms: _379  and  _380
REMARK  148  A    between atoms: _385  and  _386
REMARK  149  A    between atoms: _388  and  _390
REMARK  150  A    between atoms: _390  and  _391
REMARK  151  A    between atoms: _390  and  _393
REMARK  152  A    between atoms: _393  and  _394
REMARK  153  A    between atoms: _396  and  _398
REMARK  154  A    between atoms: _398  and  _399
REMARK  155  A    between atoms: _398  and  _401
REMARK  156  A    between atoms: _401  and  _402
REMARK                            x       y       z     vdW  Elec       q    Type
REMARK                         _______ _______ _______ _____ _____    ______ ____
ROOT
ATOM      1  O   HOH     1      25.753  22.903   0.903  0.00  0.00    +0.000 OA
ENDROOT
TORSDOF 0
REMARK  Name = ../refined-set-2016/1toj/1toj_pocket.pdb
REMARK  156 active torsions:
REMARK  status: ('A' for Active; 'I' for Inactive)
REMARK    1  A    between atoms: _1  and  _3
REMARK    2  A    between atoms: _3  and  _4
REMARK    3  A    between atoms: _3  and  _6
REMARK    4  A    between atoms: _6  and  _7
REMARK    5  A    between atoms: _11  and  _12
REMARK    6  A    between atoms: _17  and  _19
REMARK    7  A    between atoms: _19  and  _20
REMARK    8  A    between atoms: _19  and  _22
REMARK    9  A    between atoms: _22  and  _23
REMARK   10  A    between atoms: _26  and  _28
REMARK   11  A    between atoms: _28  and  _29
REMARK   12  A    between atoms: _28  and  _31
REMARK   13  A    between atoms: _31  and  _32
REMARK   14  A    between atoms: _35  and  _37
REMARK   15  A    between atoms: _37  and  _38
REMARK   16  A    between atoms: _40  and  _42
REMARK   17  A    between atoms: _42  and  _43
REMARK   18  A    between atoms: _42  and  _45
REMARK   19  A    between atoms: _45  and  _46
REMARK   20  A    between atoms: _49  and  _51
REMARK   21  A    between atoms: _51  and  _52
REMARK   22  A    between atoms: _51  and  _54
REMARK   23  A    between atoms: _54  and  _55
REMARK   24  A    between atoms: _58  and  _60
REMARK   25  A    between atoms: _60  and  _61
REMARK   26  A    between atoms: _63  and  _65
REMARK   27  A    between atoms: _65  and  _66
REMARK   28  A    between atoms: _65  and  _68
REMARK   29  A    between atoms: _68  and  _69
REMARK   30  A    between atoms: _72  and  _74
REMARK   31  A    between atoms: _74  and  _75
REMARK   32  A    between atoms: _77  and  _79
REMARK   33  A    between atoms: _79  and  _80
REMARK   34  A    between atoms: _79  and  _82
REMARK   35  A    between atoms: _85  and  _87
REMARK   36  A    between atoms: _87  and  _88
REMARK   37  A    between atoms: _90  and  _92
REMARK   38  A    between atoms: _92  and  _93
REMARK   39  A    between atoms: _92  and  _95
REMARK   40  A    between atoms: _95  and  _96
REMARK   41  A    between atoms: _98  and  _100
REMARK   42  A    between atoms: _100  and  _101
REMARK   43  A    between atoms: _103  and  _105
REMARK   44  A    between atoms: _105  and  _106
REMARK   45  A    between atoms: _105  and  _108
REMARK   46  A    between atoms: _108  and  _109
REMARK   47  A    between atoms: _112  and  _114
REMARK   48  A    between atoms: _114  and  _115
REMARK   49  A    between atoms: _114  and  _117
REMARK   50  A    between atoms: _117  and  _118
REMARK   51  A    between atoms: _120  and  _122
REMARK   52  A    between atoms: _122  and  _123
REMARK   53  A    between atoms: _122  and  _125
REMARK   54  A    between atoms: _125  and  _126
REMARK   55  A    between atoms: _137  and  _138
REMARK   56  A    between atoms: _143  and  _145
REMARK   57  A    between atoms: _145  and  _146
REMARK   58  A    between atoms: _145  and  _148
REMARK   59  A    between atoms: _148  and  _149
REMARK   60  A    between atoms: _154  and  _156
REMARK   61  A    between atoms: _156  and  _157
REMARK   62  A    between atoms: _156  and  _159
REMARK   63  A    between atoms: _159  and  _160
REMARK   64  A    between atoms: _165  and  _167
REMARK   65  A    between atoms: _167  and  _168
REMARK   66  A    between atoms: _167  and  _170
REMARK   67  A    between atoms: _170  and  _171
REMARK   68  A    between atoms: _177  and  _178
REMARK   69  A    between atoms: _183  and  _185
REMARK   70  A    between atoms: _185  and  _186
REMARK   71  A    between atoms: _189  and  _191
REMARK   72  A    between atoms: _191  and  _192
REMARK   73  A    between atoms: _191  and  _194
REMARK   74  A    between atoms: _194  and  _195
REMARK   75  A    between atoms: _200  and  _201
REMARK   76  A    between atoms: _203  and  _205
REMARK   77  A    between atoms: _205  and  _206
REMARK   78  A    between atoms: _205  and  _208
REMARK   79  A    between atoms: _208  and  _209
REMARK   80  A    between atoms: _211  and  _213
REMARK   81  A    between atoms: _213  and  _214
REMARK   82  A    between atoms: _213  and  _216
REMARK   83  A    between atoms: _216  and  _217
REMARK   84  A    between atoms: _224  and  _225
REMARK   85  A    between atoms: _225  and  _241
REMARK   86  A    between atoms: _226  and  _228
REMARK   87  A    between atoms: _228  and  _229
REMARK   88  A    between atoms: _229  and  _230
REMARK   89  A    between atoms: _234  and  _236
REMARK   90  A    between atoms: _236  and  _237
REMARK   91  A    between atoms: _236  and  _244
REMARK   92  A    between atoms: _237  and  _238
REMARK   93  A    between atoms: _238  and  _239
REMARK   94  A    between atoms: _239  and  _240
REMARK   95  A    between atoms: _240  and  _241
REMARK   96  A    between atoms: _246  and  _248
REMARK   97  A    between atoms: _248  and  _249
REMARK   98  A    between atoms: _248  and  _251
REMARK   99  A    between atoms: _251  and  _252
REMARK  100  A    between atoms: _257  and  _258
REMARK  101  A    between atoms: _260  and  _262
REMARK  102  A    between atoms: _262  and  _263
REMARK  103  A    between atoms: _262  and  _265
REMARK  104  A    between atoms: _265  and  _266
REMARK  105  A    between atoms: _266  and  _267
REMARK  106  A    between atoms: _267  and  _268
REMARK  107  A    between atoms: _277  and  _279
REMARK  108  A    between atoms: _279  and  _280
REMARK  109  A    between atoms: _279  and  _282
REMARK  110  A    between atoms: _282  and  _283
REMARK  111  A    between atoms: _283  and  _284
REMARK  112  A    between atoms: _286  and  _288
REMARK  113  A    between atoms: _288  and  _289
REMARK  114  A    between atoms: _288  and  _291
REMARK  115  A    between atoms: _291  and  _292
REMARK  116  A    between atoms: _298  and  _300
REMARK  117  A    between atoms: _300  and  _301
REMARK  118  A    between atoms: _300  and  _303
REMARK  119  A    between atoms: _306  and  _308
REMARK  120  A    between atoms: _308  and  _309
REMARK  121  A    between atoms: _308  and  _311
REMARK  122  A    between atoms: _311  and  _312
REMARK  123  A    between atoms: _312  and  _313
REMARK  124  A    between atoms: _313  and  _314
REMARK  125  A    between atoms: _323  and  _325
REMARK  126  A    between atoms: _325  and  _326
REMARK  127  A    between atoms: _325  and  _328
REMARK  128  A    between atoms: _328  and  _329
REMARK  129  A    between atoms: _334  and  _336
REMARK  130  A    between atoms: _336  and  _337
REMARK  131  A    between atoms: _336  and  _339
REMARK  132  A    between atoms: _339  and  _340
REMARK  133  A    between atoms: _345  and  _346
REMARK  134  A    between atoms: _348  and  _350
REMARK  135  A    between atoms: _350  and  _351
REMARK  136  A    between atoms: _350  and  _353
REMARK  137  A    between atoms: _353  and  _354
REMARK  138  A    between atoms: _357  and  _359
REMARK  139  A    between atoms: _359  and  _360
REMARK  140  A    between atoms: _359  and  _362
REMARK  141  A    between atoms: _362  and  _363
REMARK  142  A    between atoms: _363  and  _364
REMARK  143  A    between atoms: _364  and  _365
REMARK  144  A    between atoms: _374  and  _376
REMARK  145  A    between atoms: _376  and  _377
REMARK  146  A    between atoms: _376  and  _379
REMARK  147  A    between atoms: _379  and  _380
REMARK  148  A    between atoms: _385  and  _386
REMARK  149  A    between atoms: _388  and  _390
REMARK  150  A    between atoms: _390  and  _391
REMARK  151  A    between atoms: _390  and  _393
REMARK  152  A    between atoms: _393  and  _394
REMARK  153  A    between atoms: _396  and  _398
REMARK  154  A    between atoms: _398  and  _399
REMARK  155  A    between atoms: _398  and  _401
REMARK  156  A    between atoms: _401  and  _402
REMARK                            x       y       z     vdW  Elec       q    Type
REMARK                         _______ _______ _______ _____ _____    ______ ____
ROOT
ATOM      1  O   HOH     1      34.168  21.024  -2.049  0.00  0.00    +0.000 OA
ENDROOT
TORSDOF 0
REMARK  Name = ../refined-set-2016/1toj/1toj_pocket.pdb
REMARK  156 active torsions:
REMARK  status: ('A' for Active; 'I' for Inactive)
REMARK    1  A    between atoms: _1  and  _3
REMARK    2  A    between atoms: _3  and  _4
REMARK    3  A    between atoms: _3  and  _6
REMARK    4  A    between atoms: _6  and  _7
REMARK    5  A    between atoms: _11  and  _12
REMARK    6  A    between atoms: _17  and  _19
REMARK    7  A    between atoms: _19  and  _20
REMARK    8  A    between atoms: _19  and  _22
REMARK    9  A    between atoms: _22  and  _23
REMARK   10  A    between atoms: _26  and  _28
REMARK   11  A    between atoms: _28  and  _29
REMARK   12  A    between atoms: _28  and  _31
REMARK   13  A    between atoms: _31  and  _32
REMARK   14  A    between atoms: _35  and  _37
REMARK   15  A    between atoms: _37  and  _38
REMARK   16  A    between atoms: _40  and  _42
REMARK   17  A    between atoms: _42  and  _43
REMARK   18  A    between atoms: _42  and  _45
REMARK   19  A    between atoms: _45  and  _46
REMARK   20  A    between atoms: _49  and  _51
REMARK   21  A    between atoms: _51  and  _52
REMARK   22  A    between atoms: _51  and  _54
REMARK   23  A    between atoms: _54  and  _55
REMARK   24  A    between atoms: _58  and  _60
REMARK   25  A    between atoms: _60  and  _61
REMARK   26  A    between atoms: _63  and  _65
REMARK   27  A    between atoms: _65  and  _66
REMARK   28  A    between atoms: _65  and  _68
REMARK   29  A    between atoms: _68  and  _69
REMARK   30  A    between atoms: _72  and  _74
REMARK   31  A    between atoms: _74  and  _75
REMARK   32  A    between atoms: _77  and  _79
REMARK   33  A    between atoms: _79  and  _80
REMARK   34  A    between atoms: _79  and  _82
REMARK   35  A    between atoms: _85  and  _87
REMARK   36  A    between atoms: _87  and  _88
REMARK   37  A    between atoms: _90  and  _92
REMARK   38  A    between atoms: _92  and  _93
REMARK   39  A    between atoms: _92  and  _95
REMARK   40  A    between atoms: _95  and  _96
REMARK   41  A    between atoms: _98  and  _100
REMARK   42  A    between atoms: _100  and  _101
REMARK   43  A    between atoms: _103  and  _105
REMARK   44  A    between atoms: _105  and  _106
REMARK   45  A    between atoms: _105  and  _108
REMARK   46  A    between atoms: _108  and  _109
REMARK   47  A    between atoms: _112  and  _114
REMARK   48  A    between atoms: _114  and  _115
REMARK   49  A    between atoms: _114  and  _117
REMARK   50  A    between atoms: _117  and  _118
REMARK   51  A    between atoms: _120  and  _122
REMARK   52  A    between atoms: _122  and  _123
REMARK   53  A    between atoms: _122  and  _125
REMARK   54  A    between atoms: _125  and  _126
REMARK   55  A    between atoms: _137  and  _138
REMARK   56  A    between atoms: _143  and  _145
REMARK   57  A    between atoms: _145  and  _146
REMARK   58  A    between atoms: _145  and  _148
REMARK   59  A    between atoms: _148  and  _149
REMARK   60  A    between atoms: _154  and  _156
REMARK   61  A    between atoms: _156  and  _157
REMARK   62  A    between atoms: _156  and  _159
REMARK   63  A    between atoms: _159  and  _160
REMARK   64  A    between atoms: _165  and  _167
REMARK   65  A    between atoms: _167  and  _168
REMARK   66  A    between atoms: _167  and  _170
REMARK   67  A    between atoms: _170  and  _171
REMARK   68  A    between atoms: _177  and  _178
REMARK   69  A    between atoms: _183  and  _185
REMARK   70  A    between atoms: _185  and  _186
REMARK   71  A    between atoms: _189  and  _191
REMARK   72  A    between atoms: _191  and  _192
REMARK   73  A    between atoms: _191  and  _194
REMARK   74  A    between atoms: _194  and  _195
REMARK   75  A    between atoms: _200  and  _201
REMARK   76  A    between atoms: _203  and  _205
REMARK   77  A    between atoms: _205  and  _206
REMARK   78  A    between atoms: _205  and  _208
REMARK   79  A    between atoms: _208  and  _209
REMARK   80  A    between atoms: _211  and  _213
REMARK   81  A    between atoms: _213  and  _214
REMARK   82  A    between atoms: _213  and  _216
REMARK   83  A    between atoms: _216  and  _217
REMARK   84  A    between atoms: _224  and  _225
REMARK   85  A    between atoms: _225  and  _241
REMARK   86  A    between atoms: _226  and  _228
REMARK   87  A    between atoms: _228  and  _229
REMARK   88  A    between atoms: _229  and  _230
REMARK   89  A    between atoms: _234  and  _236
REMARK   90  A    between atoms: _236  and  _237
REMARK   91  A    between atoms: _236  and  _244
REMARK   92  A    between atoms: _237  and  _238
REMARK   93  A    between atoms: _238  and  _239
REMARK   94  A    between atoms: _239  and  _240
REMARK   95  A    between atoms: _240  and  _241
REMARK   96  A    between atoms: _246  and  _248
REMARK   97  A    between atoms: _248  and  _249
REMARK   98  A    between atoms: _248  and  _251
REMARK   99  A    between atoms: _251  and  _252
REMARK  100  A    between atoms: _257  and  _258
REMARK  101  A    between atoms: _260  and  _262
REMARK  102  A    between atoms: _262  and  _263
REMARK  103  A    between atoms: _262  and  _265
REMARK  104  A    between atoms: _265  and  _266
REMARK  105  A    between atoms: _266  and  _267
REMARK  106  A    between atoms: _267  and  _268
REMARK  107  A    between atoms: _277  and  _279
REMARK  108  A    between atoms: _279  and  _280
REMARK  109  A    between atoms: _279  and  _282
REMARK  110  A    between atoms: _282  and  _283
REMARK  111  A    between atoms: _283  and  _284
REMARK  112  A    between atoms: _286  and  _288
REMARK  113  A    between atoms: _288  and  _289
REMARK  114  A    between atoms: _288  and  _291
REMARK  115  A    between atoms: _291  and  _292
REMARK  116  A    between atoms: _298  and  _300
REMARK  117  A    between atoms: _300  and  _301
REMARK  118  A    between atoms: _300  and  _303
REMARK  119  A    between atoms: _306  and  _308
REMARK  120  A    between atoms: _308  and  _309
REMARK  121  A    between atoms: _308  and  _311
REMARK  122  A    between atoms: _311  and  _312
REMARK  123  A    between atoms: _312  and  _313
REMARK  124  A    between atoms: _313  and  _314
REMARK  125  A    between atoms: _323  and  _325
REMARK  126  A    between atoms: _325  and  _326
REMARK  127  A    between atoms: _325  and  _328
REMARK  128  A    between atoms: _328  and  _329
REMARK  129  A    between atoms: _334  and  _336
REMARK  130  A    between atoms: _336  and  _337
REMARK  131  A    between atoms: _336  and  _339
REMARK  132  A    between atoms: _339  and  _340
REMARK  133  A    between atoms: _345  and  _346
REMARK  134  A    between atoms: _348  and  _350
REMARK  135  A    between atoms: _350  and  _351
REMARK  136  A    between atoms: _350  and  _353
REMARK  137  A    between atoms: _353  and  _354
REMARK  138  A    between atoms: _357  and  _359
REMARK  139  A    between atoms: _359  and  _360
REMARK  140  A    between atoms: _359  and  _362
REMARK  141  A    between atoms: _362  and  _363
REMARK  142  A    between atoms: _363  and  _364
REMARK  143  A    between atoms: _364  and  _365
REMARK  144  A    between atoms: _374  and  _376
REMARK  145  A    between atoms: _376  and  _377
REMARK  146  A    between atoms: _376  and  _379
REMARK  147  A    between atoms: _379  and  _380
REMARK  148  A    between atoms: _385  and  _386
REMARK  149  A    between atoms: _388  and  _390
REMARK  150  A    between atoms: _390  and  _391
REMARK  151  A    between atoms: _390  and  _393
REMARK  152  A    between atoms: _393  and  _394
REMARK  153  A    between atoms: _396  and  _398
REMARK  154  A    between atoms: _398  and  _399
REMARK  155  A    between atoms: _398  and  _401
REMARK  156  A    between atoms: _401  and  _402
REMARK                            x       y       z     vdW  Elec       q    Type
REMARK                         _______ _______ _______ _____ _____    ______ ____
ROOT
ATOM      1  O   HOH     1      29.876  28.968   8.877  0.00  0.00    +0.000 OA
ENDROOT
TORSDOF 0
REMARK  Name = ../refined-set-2016/1toj/1toj_pocket.pdb
REMARK  156 active torsions:
REMARK  status: ('A' for Active; 'I' for Inactive)
REMARK    1  A    between atoms: _1  and  _3
REMARK    2  A    between atoms: _3  and  _4
REMARK    3  A    between atoms: _3  and  _6
REMARK    4  A    between atoms: _6  and  _7
REMARK    5  A    between atoms: _11  and  _12
REMARK    6  A    between atoms: _17  and  _19
REMARK    7  A    between atoms: _19  and  _20
REMARK    8  A    between atoms: _19  and  _22
REMARK    9  A    between atoms: _22  and  _23
REMARK   10  A    between atoms: _26  and  _28
REMARK   11  A    between atoms: _28  and  _29
REMARK   12  A    between atoms: _28  and  _31
REMARK   13  A    between atoms: _31  and  _32
REMARK   14  A    between atoms: _35  and  _37
REMARK   15  A    between atoms: _37  and  _38
REMARK   16  A    between atoms: _40  and  _42
REMARK   17  A    between atoms: _42  and  _43
REMARK   18  A    between atoms: _42  and  _45
REMARK   19  A    between atoms: _45  and  _46
REMARK   20  A    between atoms: _49  and  _51
REMARK   21  A    between atoms: _51  and  _52
REMARK   22  A    between atoms: _51  and  _54
REMARK   23  A    between atoms: _54  and  _55
REMARK   24  A    between atoms: _58  and  _60
REMARK   25  A    between atoms: _60  and  _61
REMARK   26  A    between atoms: _63  and  _65
REMARK   27  A    between atoms: _65  and  _66
REMARK   28  A    between atoms: _65  and  _68
REMARK   29  A    between atoms: _68  and  _69
REMARK   30  A    between atoms: _72  and  _74
REMARK   31  A    between atoms: _74  and  _75
REMARK   32  A    between atoms: _77  and  _79
REMARK   33  A    between atoms: _79  and  _80
REMARK   34  A    between atoms: _79  and  _82
REMARK   35  A    between atoms: _85  and  _87
REMARK   36  A    between atoms: _87  and  _88
REMARK   37  A    between atoms: _90  and  _92
REMARK   38  A    between atoms: _92  and  _93
REMARK   39  A    between atoms: _92  and  _95
REMARK   40  A    between atoms: _95  and  _96
REMARK   41  A    between atoms: _98  and  _100
REMARK   42  A    between atoms: _100  and  _101
REMARK   43  A    between atoms: _103  and  _105
REMARK   44  A    between atoms: _105  and  _106
REMARK   45  A    between atoms: _105  and  _108
REMARK   46  A    between atoms: _108  and  _109
REMARK   47  A    between atoms: _112  and  _114
REMARK   48  A    between atoms: _114  and  _115
REMARK   49  A    between atoms: _114  and  _117
REMARK   50  A    between atoms: _117  and  _118
REMARK   51  A    between atoms: _120  and  _122
REMARK   52  A    between atoms: _122  and  _123
REMARK   53  A    between atoms: _122  and  _125
REMARK   54  A    between atoms: _125  and  _126
REMARK   55  A    between atoms: _137  and  _138
REMARK   56  A    between atoms: _143  and  _145
REMARK   57  A    between atoms: _145  and  _146
REMARK   58  A    between atoms: _145  and  _148
REMARK   59  A    between atoms: _148  and  _149
REMARK   60  A    between atoms: _154  and  _156
REMARK   61  A    between atoms: _156  and  _157
REMARK   62  A    between atoms: _156  and  _159
REMARK   63  A    between atoms: _159  and  _160
REMARK   64  A    between atoms: _165  and  _167
REMARK   65  A    between atoms: _167  and  _168
REMARK   66  A    between atoms: _167  and  _170
REMARK   67  A    between atoms: _170  and  _171
REMARK   68  A    between atoms: _177  and  _178
REMARK   69  A    between atoms: _183  and  _185
REMARK   70  A    between atoms: _185  and  _186
REMARK   71  A    between atoms: _189  and  _191
REMARK   72  A    between atoms: _191  and  _192
REMARK   73  A    between atoms: _191  and  _194
REMARK   74  A    between atoms: _194  and  _195
REMARK   75  A    between atoms: _200  and  _201
REMARK   76  A    between atoms: _203  and  _205
REMARK   77  A    between atoms: _205  and  _206
REMARK   78  A    between atoms: _205  and  _208
REMARK   79  A    between atoms: _208  and  _209
REMARK   80  A    between atoms: _211  and  _213
REMARK   81  A    between atoms: _213  and  _214
REMARK   82  A    between atoms: _213  and  _216
REMARK   83  A    between atoms: _216  and  _217
REMARK   84  A    between atoms: _224  and  _225
REMARK   85  A    between atoms: _225  and  _241
REMARK   86  A    between atoms: _226  and  _228
REMARK   87  A    between atoms: _228  and  _229
REMARK   88  A    between atoms: _229  and  _230
REMARK   89  A    between atoms: _234  and  _236
REMARK   90  A    between atoms: _236  and  _237
REMARK   91  A    between atoms: _236  and  _244
REMARK   92  A    between atoms: _237  and  _238
REMARK   93  A    between atoms: _238  and  _239
REMARK   94  A    between atoms: _239  and  _240
REMARK   95  A    between atoms: _240  and  _241
REMARK   96  A    between atoms: _246  and  _248
REMARK   97  A    between atoms: _248  and  _249
REMARK   98  A    between atoms: _248  and  _251
REMARK   99  A    between atoms: _251  and  _252
REMARK  100  A    between atoms: _257  and  _258
REMARK  101  A    between atoms: _260  and  _262
REMARK  102  A    between atoms: _262  and  _263
REMARK  103  A    between atoms: _262  and  _265
REMARK  104  A    between atoms: _265  and  _266
REMARK  105  A    between atoms: _266  and  _267
REMARK  106  A    between atoms: _267  and  _268
REMARK  107  A    between atoms: _277  and  _279
REMARK  108  A    between atoms: _279  and  _280
REMARK  109  A    between atoms: _279  and  _282
REMARK  110  A    between atoms: _282  and  _283
REMARK  111  A    between atoms: _283  and  _284
REMARK  112  A    between atoms: _286  and  _288
REMARK  113  A    between atoms: _288  and  _289
REMARK  114  A    between atoms: _288  and  _291
REMARK  115  A    between atoms: _291  and  _292
REMARK  116  A    between atoms: _298  and  _300
REMARK  117  A    between atoms: _300  and  _301
REMARK  118  A    between atoms: _300  and  _303
REMARK  119  A    between atoms: _306  and  _308
REMARK  120  A    between atoms: _308  and  _309
REMARK  121  A    between atoms: _308  and  _311
REMARK  122  A    between atoms: _311  and  _312
REMARK  123  A    between atoms: _312  and  _313
REMARK  124  A    between atoms: _313  and  _314
REMARK  125  A    between atoms: _323  and  _325
REMARK  126  A    between atoms: _325  and  _326
REMARK  127  A    between atoms: _325  and  _328
REMARK  128  A    between atoms: _328  and  _329
REMARK  129  A    between atoms: _334  and  _336
REMARK  130  A    between atoms: _336  and  _337
REMARK  131  A    between atoms: _336  and  _339
REMARK  132  A    between atoms: _339  and  _340
REMARK  133  A    between atoms: _345  and  _346
REMARK  134  A    between atoms: _348  and  _350
REMARK  135  A    between atoms: _350  and  _351
REMARK  136  A    between atoms: _350  and  _353
REMARK  137  A    between atoms: _353  and  _354
REMARK  138  A    between atoms: _357  and  _359
REMARK  139  A    between atoms: _359  and  _360
REMARK  140  A    between atoms: _359  and  _362
REMARK  141  A    between atoms: _362  and  _363
REMARK  142  A    between atoms: _363  and  _364
REMARK  143  A    between atoms: _364  and  _365
REMARK  144  A    between atoms: _374  and  _376
REMARK  145  A    between atoms: _376  and  _377
REMARK  146  A    between atoms: _376  and  _379
REMARK  147  A    between atoms: _379  and  _380
REMARK  148  A    between atoms: _385  and  _386
REMARK  149  A    between atoms: _388  and  _390
REMARK  150  A    between atoms: _390  and  _391
REMARK  151  A    between atoms: _390  and  _393
REMARK  152  A    between atoms: _393  and  _394
REMARK  153  A    between atoms: _396  and  _398
REMARK  154  A    between atoms: _398  and  _399
REMARK  155  A    between atoms: _398  and  _401
REMARK  156  A    between atoms: _401  and  _402
REMARK                            x       y       z     vdW  Elec       q    Type
REMARK                         _______ _______ _______ _____ _____    ______ ____
ROOT
ATOM      1  O   HOH     1      30.299  28.949   1.257  0.00  0.00    +0.000 OA
ENDROOT
TORSDOF 0
REMARK  Name = ../refined-set-2016/1toj/1toj_pocket.pdb
REMARK  156 active torsions:
REMARK  status: ('A' for Active; 'I' for Inactive)
REMARK    1  A    between atoms: _1  and  _3
REMARK    2  A    between atoms: _3  and  _4
REMARK    3  A    between atoms: _3  and  _6
REMARK    4  A    between atoms: _6  and  _7
REMARK    5  A    between atoms: _11  and  _12
REMARK    6  A    between atoms: _17  and  _19
REMARK    7  A    between atoms: _19  and  _20
REMARK    8  A    between atoms: _19  and  _22
REMARK    9  A    between atoms: _22  and  _23
REMARK   10  A    between atoms: _26  and  _28
REMARK   11  A    between atoms: _28  and  _29
REMARK   12  A    between atoms: _28  and  _31
REMARK   13  A    between atoms: _31  and  _32
REMARK   14  A    between atoms: _35  and  _37
REMARK   15  A    between atoms: _37  and  _38
REMARK   16  A    between atoms: _40  and  _42
REMARK   17  A    between atoms: _42  and  _43
REMARK   18  A    between atoms: _42  and  _45
REMARK   19  A    between atoms: _45  and  _46
REMARK   20  A    between atoms: _49  and  _51
REMARK   21  A    between atoms: _51  and  _52
REMARK   22  A    between atoms: _51  and  _54
REMARK   23  A    between atoms: _54  and  _55
REMARK   24  A    between atoms: _58  and  _60
REMARK   25  A    between atoms: _60  and  _61
REMARK   26  A    between atoms: _63  and  _65
REMARK   27  A    between atoms: _65  and  _66
REMARK   28  A    between atoms: _65  and  _68
REMARK   29  A    between atoms: _68  and  _69
REMARK   30  A    between atoms: _72  and  _74
REMARK   31  A    between atoms: _74  and  _75
REMARK   32  A    between atoms: _77  and  _79
REMARK   33  A    between atoms: _79  and  _80
REMARK   34  A    between atoms: _79  and  _82
REMARK   35  A    between atoms: _85  and  _87
REMARK   36  A    between atoms: _87  and  _88
REMARK   37  A    between atoms: _90  and  _92
REMARK   38  A    between atoms: _92  and  _93
REMARK   39  A    between atoms: _92  and  _95
REMARK   40  A    between atoms: _95  and  _96
REMARK   41  A    between atoms: _98  and  _100
REMARK   42  A    between atoms: _100  and  _101
REMARK   43  A    between atoms: _103  and  _105
REMARK   44  A    between atoms: _105  and  _106
REMARK   45  A    between atoms: _105  and  _108
REMARK   46  A    between atoms: _108  and  _109
REMARK   47  A    between atoms: _112  and  _114
REMARK   48  A    between atoms: _114  and  _115
REMARK   49  A    between atoms: _114  and  _117
REMARK   50  A    between atoms: _117  and  _118
REMARK   51  A    between atoms: _120  and  _122
REMARK   52  A    between atoms: _122  and  _123
REMARK   53  A    between atoms: _122  and  _125
REMARK   54  A    between atoms: _125  and  _126
REMARK   55  A    between atoms: _137  and  _138
REMARK   56  A    between atoms: _143  and  _145
REMARK   57  A    between atoms: _145  and  _146
REMARK   58  A    between atoms: _145  and  _148
REMARK   59  A    between atoms: _148  and  _149
REMARK   60  A    between atoms: _154  and  _156
REMARK   61  A    between atoms: _156  and  _157
REMARK   62  A    between atoms: _156  and  _159
REMARK   63  A    between atoms: _159  and  _160
REMARK   64  A    between atoms: _165  and  _167
REMARK   65  A    between atoms: _167  and  _168
REMARK   66  A    between atoms: _167  and  _170
REMARK   67  A    between atoms: _170  and  _171
REMARK   68  A    between atoms: _177  and  _178
REMARK   69  A    between atoms: _183  and  _185
REMARK   70  A    between atoms: _185  and  _186
REMARK   71  A    between atoms: _189  and  _191
REMARK   72  A    between atoms: _191  and  _192
REMARK   73  A    between atoms: _191  and  _194
REMARK   74  A    between atoms: _194  and  _195
REMARK   75  A    between atoms: _200  and  _201
REMARK   76  A    between atoms: _203  and  _205
REMARK   77  A    between atoms: _205  and  _206
REMARK   78  A    between atoms: _205  and  _208
REMARK   79  A    between atoms: _208  and  _209
REMARK   80  A    between atoms: _211  and  _213
REMARK   81  A    between atoms: _213  and  _214
REMARK   82  A    between atoms: _213  and  _216
REMARK   83  A    between atoms: _216  and  _217
REMARK   84  A    between atoms: _224  and  _225
REMARK   85  A    between atoms: _225  and  _241
REMARK   86  A    between atoms: _226  and  _228
REMARK   87  A    between atoms: _228  and  _229
REMARK   88  A    between atoms: _229  and  _230
REMARK   89  A    between atoms: _234  and  _236
REMARK   90  A    between atoms: _236  and  _237
REMARK   91  A    between atoms: _236  and  _244
REMARK   92  A    between atoms: _237  and  _238
REMARK   93  A    between atoms: _238  and  _239
REMARK   94  A    between atoms: _239  and  _240
REMARK   95  A    between atoms: _240  and  _241
REMARK   96  A    between atoms: _246  and  _248
REMARK   97  A    between atoms: _248  and  _249
REMARK   98  A    between atoms: _248  and  _251
REMARK   99  A    between atoms: _251  and  _252
REMARK  100  A    between atoms: _257  and  _258
REMARK  101  A    between atoms: _260  and  _262
REMARK  102  A    between atoms: _262  and  _263
REMARK  103  A    between atoms: _262  and  _265
REMARK  104  A    between atoms: _265  and  _266
REMARK  105  A    between atoms: _266  and  _267
REMARK  106  A    between atoms: _267  and  _268
REMARK  107  A    between atoms: _277  and  _279
REMARK  108  A    between atoms: _279  and  _280
REMARK  109  A    between atoms: _279  and  _282
REMARK  110  A    between atoms: _282  and  _283
REMARK  111  A    between atoms: _283  and  _284
REMARK  112  A    between atoms: _286  and  _288
REMARK  113  A    between atoms: _288  and  _289
REMARK  114  A    between atoms: _288  and  _291
REMARK  115  A    between atoms: _291  and  _292
REMARK  116  A    between atoms: _298  and  _300
REMARK  117  A    between atoms: _300  and  _301
REMARK  118  A    between atoms: _300  and  _303
REMARK  119  A    between atoms: _306  and  _308
REMARK  120  A    between atoms: _308  and  _309
REMARK  121  A    between atoms: _308  and  _311
REMARK  122  A    between atoms: _311  and  _312
REMARK  123  A    between atoms: _312  and  _313
REMARK  124  A    between atoms: _313  and  _314
REMARK  125  A    between atoms: _323  and  _325
REMARK  126  A    between atoms: _325  and  _326
REMARK  127  A    between atoms: _325  and  _328
REMARK  128  A    between atoms: _328  and  _329
REMARK  129  A    between atoms: _334  and  _336
REMARK  130  A    between atoms: _336  and  _337
REMARK  131  A    between atoms: _336  and  _339
REMARK  132  A    between atoms: _339  and  _340
REMARK  133  A    between atoms: _345  and  _346
REMARK  134  A    between atoms: _348  and  _350
REMARK  135  A    between atoms: _350  and  _351
REMARK  136  A    between atoms: _350  and  _353
REMARK  137  A    between atoms: _353  and  _354
REMARK  138  A    between atoms: _357  and  _359
REMARK  139  A    between atoms: _359  and  _360
REMARK  140  A    between atoms: _359  and  _362
REMARK  141  A    between atoms: _362  and  _363
REMARK  142  A    between atoms: _363  and  _364
REMARK  143  A    between atoms: _364  and  _365
REMARK  144  A    between atoms: _374  and  _376
REMARK  145  A    between atoms: _376  and  _377
REMARK  146  A    between atoms: _376  and  _379
REMARK  147  A    between atoms: _379  and  _380
REMARK  148  A    between atoms: _385  and  _386
REMARK  149  A    between atoms: _388  and  _390
REMARK  150  A    between atoms: _390  and  _391
REMARK  151  A    between atoms: _390  and  _393
REMARK  152  A    between atoms: _393  and  _394
REMARK  153  A    between atoms: _396  and  _398
REMARK  154  A    between atoms: _398  and  _399
REMARK  155  A    between atoms: _398  and  _401
REMARK  156  A    between atoms: _401  and  _402
REMARK                            x       y       z     vdW  Elec       q    Type
REMARK                         _______ _______ _______ _____ _____    ______ ____
ROOT
ATOM      1  O   HOH     1      23.753  20.263   7.417  0.00  0.00    +0.000 OA
ENDROOT
TORSDOF 0
REMARK  Name = ../refined-set-2016/1toj/1toj_pocket.pdb
REMARK  156 active torsions:
REMARK  status: ('A' for Active; 'I' for Inactive)
REMARK    1  A    between atoms: _1  and  _3
REMARK    2  A    between atoms: _3  and  _4
REMARK    3  A    between atoms: _3  and  _6
REMARK    4  A    between atoms: _6  and  _7
REMARK    5  A    between atoms: _11  and  _12
REMARK    6  A    between atoms: _17  and  _19
REMARK    7  A    between atoms: _19  and  _20
REMARK    8  A    between atoms: _19  and  _22
REMARK    9  A    between atoms: _22  and  _23
REMARK   10  A    between atoms: _26  and  _28
REMARK   11  A    between atoms: _28  and  _29
REMARK   12  A    between atoms: _28  and  _31
REMARK   13  A    between atoms: _31  and  _32
REMARK   14  A    between atoms: _35  and  _37
REMARK   15  A    between atoms: _37  and  _38
REMARK   16  A    between atoms: _40  and  _42
REMARK   17  A    between atoms: _42  and  _43
REMARK   18  A    between atoms: _42  and  _45
REMARK   19  A    between atoms: _45  and  _46
REMARK   20  A    between atoms: _49  and  _51
REMARK   21  A    between atoms: _51  and  _52
REMARK   22  A    between atoms: _51  and  _54
REMARK   23  A    between atoms: _54  and  _55
REMARK   24  A    between atoms: _58  and  _60
REMARK   25  A    between atoms: _60  and  _61
REMARK   26  A    between atoms: _63  and  _65
REMARK   27  A    between atoms: _65  and  _66
REMARK   28  A    between atoms: _65  and  _68
REMARK   29  A    between atoms: _68  and  _69
REMARK   30  A    between atoms: _72  and  _74
REMARK   31  A    between atoms: _74  and  _75
REMARK   32  A    between atoms: _77  and  _79
REMARK   33  A    between atoms: _79  and  _80
REMARK   34  A    between atoms: _79  and  _82
REMARK   35  A    between atoms: _85  and  _87
REMARK   36  A    between atoms: _87  and  _88
REMARK   37  A    between atoms: _90  and  _92
REMARK   38  A    between atoms: _92  and  _93
REMARK   39  A    between atoms: _92  and  _95
REMARK   40  A    between atoms: _95  and  _96
REMARK   41  A    between atoms: _98  and  _100
REMARK   42  A    between atoms: _100  and  _101
REMARK   43  A    between atoms: _103  and  _105
REMARK   44  A    between atoms: _105  and  _106
REMARK   45  A    between atoms: _105  and  _108
REMARK   46  A    between atoms: _108  and  _109
REMARK   47  A    between atoms: _112  and  _114
REMARK   48  A    between atoms: _114  and  _115
REMARK   49  A    between atoms: _114  and  _117
REMARK   50  A    between atoms: _117  and  _118
REMARK   51  A    between atoms: _120  and  _122
REMARK   52  A    between atoms: _122  and  _123
REMARK   53  A    between atoms: _122  and  _125
REMARK   54  A    between atoms: _125  and  _126
REMARK   55  A    between atoms: _137  and  _138
REMARK   56  A    between atoms: _143  and  _145
REMARK   57  A    between atoms: _145  and  _146
REMARK   58  A    between atoms: _145  and  _148
REMARK   59  A    between atoms: _148  and  _149
REMARK   60  A    between atoms: _154  and  _156
REMARK   61  A    between atoms: _156  and  _157
REMARK   62  A    between atoms: _156  and  _159
REMARK   63  A    between atoms: _159  and  _160
REMARK   64  A    between atoms: _165  and  _167
REMARK   65  A    between atoms: _167  and  _168
REMARK   66  A    between atoms: _167  and  _170
REMARK   67  A    between atoms: _170  and  _171
REMARK   68  A    between atoms: _177  and  _178
REMARK   69  A    between atoms: _183  and  _185
REMARK   70  A    between atoms: _185  and  _186
REMARK   71  A    between atoms: _189  and  _191
REMARK   72  A    between atoms: _191  and  _192
REMARK   73  A    between atoms: _191  and  _194
REMARK   74  A    between atoms: _194  and  _195
REMARK   75  A    between atoms: _200  and  _201
REMARK   76  A    between atoms: _203  and  _205
REMARK   77  A    between atoms: _205  and  _206
REMARK   78  A    between atoms: _205  and  _208
REMARK   79  A    between atoms: _208  and  _209
REMARK   80  A    between atoms: _211  and  _213
REMARK   81  A    between atoms: _213  and  _214
REMARK   82  A    between atoms: _213  and  _216
REMARK   83  A    between atoms: _216  and  _217
REMARK   84  A    between atoms: _224  and  _225
REMARK   85  A    between atoms: _225  and  _241
REMARK   86  A    between atoms: _226  and  _228
REMARK   87  A    between atoms: _228  and  _229
REMARK   88  A    between atoms: _229  and  _230
REMARK   89  A    between atoms: _234  and  _236
REMARK   90  A    between atoms: _236  and  _237
REMARK   91  A    between atoms: _236  and  _244
REMARK   92  A    between atoms: _237  and  _238
REMARK   93  A    between atoms: _238  and  _239
REMARK   94  A    between atoms: _239  and  _240
REMARK   95  A    between atoms: _240  and  _241
REMARK   96  A    between atoms: _246  and  _248
REMARK   97  A    between atoms: _248  and  _249
REMARK   98  A    between atoms: _248  and  _251
REMARK   99  A    between atoms: _251  and  _252
REMARK  100  A    between atoms: _257  and  _258
REMARK  101  A    between atoms: _260  and  _262
REMARK  102  A    between atoms: _262  and  _263
REMARK  103  A    between atoms: _262  and  _265
REMARK  104  A    between atoms: _265  and  _266
REMARK  105  A    between atoms: _266  and  _267
REMARK  106  A    between atoms: _267  and  _268
REMARK  107  A    between atoms: _277  and  _279
REMARK  108  A    between atoms: _279  and  _280
REMARK  109  A    between atoms: _279  and  _282
REMARK  110  A    between atoms: _282  and  _283
REMARK  111  A    between atoms: _283  and  _284
REMARK  112  A    between atoms: _286  and  _288
REMARK  113  A    between atoms: _288  and  _289
REMARK  114  A    between atoms: _288  and  _291
REMARK  115  A    between atoms: _291  and  _292
REMARK  116  A    between atoms: _298  and  _300
REMARK  117  A    between atoms: _300  and  _301
REMARK  118  A    between atoms: _300  and  _303
REMARK  119  A    between atoms: _306  and  _308
REMARK  120  A    between atoms: _308  and  _309
REMARK  121  A    between atoms: _308  and  _311
REMARK  122  A    between atoms: _311  and  _312
REMARK  123  A    between atoms: _312  and  _313
REMARK  124  A    between atoms: _313  and  _314
REMARK  125  A    between atoms: _323  and  _325
REMARK  126  A    between atoms: _325  and  _326
REMARK  127  A    between atoms: _325  and  _328
REMARK  128  A    between atoms: _328  and  _329
REMARK  129  A    between atoms: _334  and  _336
REMARK  130  A    between atoms: _336  and  _337
REMARK  131  A    between atoms: _336  and  _339
REMARK  132  A    between atoms: _339  and  _340
REMARK  133  A    between atoms: _345  and  _346
REMARK  134  A    between atoms: _348  and  _350
REMARK  135  A    between atoms: _350  and  _351
REMARK  136  A    between atoms: _350  and  _353
REMARK  137  A    between atoms: _353  and  _354
REMARK  138  A    between atoms: _357  and  _359
REMARK  139  A    between atoms: _359  and  _360
REMARK  140  A    between atoms: _359  and  _362
REMARK  141  A    between atoms: _362  and  _363
REMARK  142  A    between atoms: _363  and  _364
REMARK  143  A    between atoms: _364  and  _365
REMARK  144  A    between atoms: _374  and  _376
REMARK  145  A    between atoms: _376  and  _377
REMARK  146  A    between atoms: _376  and  _379
REMARK  147  A    between atoms: _379  and  _380
REMARK  148  A    between atoms: _385  and  _386
REMARK  149  A    between atoms: _388  and  _390
REMARK  150  A    between atoms: _390  and  _391
REMARK  151  A    between atoms: _390  and  _393
REMARK  152  A    between atoms: _393  and  _394
REMARK  153  A    between atoms: _396  and  _398
REMARK  154  A    between atoms: _398  and  _399
REMARK  155  A    between atoms: _398  and  _401
REMARK  156  A    between atoms: _401  and  _402
REMARK                            x       y       z     vdW  Elec       q    Type
REMARK                         _______ _______ _______ _____ _____    ______ ____
ROOT
ATOM      1  O   HOH     1      35.628  28.408  10.684  0.00  0.00    +0.000 OA
ENDROOT
TORSDOF 0
REMARK  Name = ../refined-set-2016/1toj/1toj_pocket.pdb
REMARK  156 active torsions:
REMARK  status: ('A' for Active; 'I' for Inactive)
REMARK    1  A    between atoms: _1  and  _3
REMARK    2  A    between atoms: _3  and  _4
REMARK    3  A    between atoms: _3  and  _6
REMARK    4  A    between atoms: _6  and  _7
REMARK    5  A    between atoms: _11  and  _12
REMARK    6  A    between atoms: _17  and  _19
REMARK    7  A    between atoms: _19  and  _20
REMARK    8  A    between atoms: _19  and  _22
REMARK    9  A    between atoms: _22  and  _23
REMARK   10  A    between atoms: _26  and  _28
REMARK   11  A    between atoms: _28  and  _29
REMARK   12  A    between atoms: _28  and  _31
REMARK   13  A    between atoms: _31  and  _32
REMARK   14  A    between atoms: _35  and  _37
REMARK   15  A    between atoms: _37  and  _38
REMARK   16  A    between atoms: _40  and  _42
REMARK   17  A    between atoms: _42  and  _43
REMARK   18  A    between atoms: _42  and  _45
REMARK   19  A    between atoms: _45  and  _46
REMARK   20  A    between atoms: _49  and  _51
REMARK   21  A    between atoms: _51  and  _52
REMARK   22  A    between atoms: _51  and  _54
REMARK   23  A    between atoms: _54  and  _55
REMARK   24  A    between atoms: _58  and  _60
REMARK   25  A    between atoms: _60  and  _61
REMARK   26  A    between atoms: _63  and  _65
REMARK   27  A    between atoms: _65  and  _66
REMARK   28  A    between atoms: _65  and  _68
REMARK   29  A    between atoms: _68  and  _69
REMARK   30  A    between atoms: _72  and  _74
REMARK   31  A    between atoms: _74  and  _75
REMARK   32  A    between atoms: _77  and  _79
REMARK   33  A    between atoms: _79  and  _80
REMARK   34  A    between atoms: _79  and  _82
REMARK   35  A    between atoms: _85  and  _87
REMARK   36  A    between atoms: _87  and  _88
REMARK   37  A    between atoms: _90  and  _92
REMARK   38  A    between atoms: _92  and  _93
REMARK   39  A    between atoms: _92  and  _95
REMARK   40  A    between atoms: _95  and  _96
REMARK   41  A    between atoms: _98  and  _100
REMARK   42  A    between atoms: _100  and  _101
REMARK   43  A    between atoms: _103  and  _105
REMARK   44  A    between atoms: _105  and  _106
REMARK   45  A    between atoms: _105  and  _108
REMARK   46  A    between atoms: _108  and  _109
REMARK   47  A    between atoms: _112  and  _114
REMARK   48  A    between atoms: _114  and  _115
REMARK   49  A    between atoms: _114  and  _117
REMARK   50  A    between atoms: _117  and  _118
REMARK   51  A    between atoms: _120  and  _122
REMARK   52  A    between atoms: _122  and  _123
REMARK   53  A    between atoms: _122  and  _125
REMARK   54  A    between atoms: _125  and  _126
REMARK   55  A    between atoms: _137  and  _138
REMARK   56  A    between atoms: _143  and  _145
REMARK   57  A    between atoms: _145  and  _146
REMARK   58  A    between atoms: _145  and  _148
REMARK   59  A    between atoms: _148  and  _149
REMARK   60  A    between atoms: _154  and  _156
REMARK   61  A    between atoms: _156  and  _157
REMARK   62  A    between atoms: _156  and  _159
REMARK   63  A    between atoms: _159  and  _160
REMARK   64  A    between atoms: _165  and  _167
REMARK   65  A    between atoms: _167  and  _168
REMARK   66  A    between atoms: _167  and  _170
REMARK   67  A    between atoms: _170  and  _171
REMARK   68  A    between atoms: _177  and  _178
REMARK   69  A    between atoms: _183  and  _185
REMARK   70  A    between atoms: _185  and  _186
REMARK   71  A    between atoms: _189  and  _191
REMARK   72  A    between atoms: _191  and  _192
REMARK   73  A    between atoms: _191  and  _194
REMARK   74  A    between atoms: _194  and  _195
REMARK   75  A    between atoms: _200  and  _201
REMARK   76  A    between atoms: _203  and  _205
REMARK   77  A    between atoms: _205  and  _206
REMARK   78  A    between atoms: _205  and  _208
REMARK   79  A    between atoms: _208  and  _209
REMARK   80  A    between atoms: _211  and  _213
REMARK   81  A    between atoms: _213  and  _214
REMARK   82  A    between atoms: _213  and  _216
REMARK   83  A    between atoms: _216  and  _217
REMARK   84  A    between atoms: _224  and  _225
REMARK   85  A    between atoms: _225  and  _241
REMARK   86  A    between atoms: _226  and  _228
REMARK   87  A    between atoms: _228  and  _229
REMARK   88  A    between atoms: _229  and  _230
REMARK   89  A    between atoms: _234  and  _236
REMARK   90  A    between atoms: _236  and  _237
REMARK   91  A    between atoms: _236  and  _244
REMARK   92  A    between atoms: _237  and  _238
REMARK   93  A    between atoms: _238  and  _239
REMARK   94  A    between atoms: _239  and  _240
REMARK   95  A    between atoms: _240  and  _241
REMARK   96  A    between atoms: _246  and  _248
REMARK   97  A    between atoms: _248  and  _249
REMARK   98  A    between atoms: _248  and  _251
REMARK   99  A    between atoms: _251  and  _252
REMARK  100  A    between atoms: _257  and  _258
REMARK  101  A    between atoms: _260  and  _262
REMARK  102  A    between atoms: _262  and  _263
REMARK  103  A    between atoms: _262  and  _265
REMARK  104  A    between atoms: _265  and  _266
REMARK  105  A    between atoms: _266  and  _267
REMARK  106  A    between atoms: _267  and  _268
REMARK  107  A    between atoms: _277  and  _279
REMARK  108  A    between atoms: _279  and  _280
REMARK  109  A    between atoms: _279  and  _282
REMARK  110  A    between atoms: _282  and  _283
REMARK  111  A    between atoms: _283  and  _284
REMARK  112  A    between atoms: _286  and  _288
REMARK  113  A    between atoms: _288  and  _289
REMARK  114  A    between atoms: _288  and  _291
REMARK  115  A    between atoms: _291  and  _292
REMARK  116  A    between atoms: _298  and  _300
REMARK  117  A    between atoms: _300  and  _301
REMARK  118  A    between atoms: _300  and  _303
REMARK  119  A    between atoms: _306  and  _308
REMARK  120  A    between atoms: _308  and  _309
REMARK  121  A    between atoms: _308  and  _311
REMARK  122  A    between atoms: _311  and  _312
REMARK  123  A    between atoms: _312  and  _313
REMARK  124  A    between atoms: _313  and  _314
REMARK  125  A    between atoms: _323  and  _325
REMARK  126  A    between atoms: _325  and  _326
REMARK  127  A    between atoms: _325  and  _328
REMARK  128  A    between atoms: _328  and  _329
REMARK  129  A    between atoms: _334  and  _336
REMARK  130  A    between atoms: _336  and  _337
REMARK  131  A    between atoms: _336  and  _339
REMARK  132  A    between atoms: _339  and  _340
REMARK  133  A    between atoms: _345  and  _346
REMARK  134  A    between atoms: _348  and  _350
REMARK  135  A    between atoms: _350  and  _351
REMARK  136  A    between atoms: _350  and  _353
REMARK  137  A    between atoms: _353  and  _354
REMARK  138  A    between atoms: _357  and  _359
REMARK  139  A    between atoms: _359  and  _360
REMARK  140  A    between atoms: _359  and  _362
REMARK  141  A    between atoms: _362  and  _363
REMARK  142  A    between atoms: _363  and  _364
REMARK  143  A    between atoms: _364  and  _365
REMARK  144  A    between atoms: _374  and  _376
REMARK  145  A    between atoms: _376  and  _377
REMARK  146  A    between atoms: _376  and  _379
REMARK  147  A    between atoms: _379  and  _380
REMARK  148  A    between atoms: _385  and  _386
REMARK  149  A    between atoms: _388  and  _390
REMARK  150  A    between atoms: _390  and  _391
REMARK  151  A    between atoms: _390  and  _393
REMARK  152  A    between atoms: _393  and  _394
REMARK  153  A    between atoms: _396  and  _398
REMARK  154  A    between atoms: _398  and  _399
REMARK  155  A    between atoms: _398  and  _401
REMARK  156  A    between atoms: _401  and  _402
REMARK                            x       y       z     vdW  Elec       q    Type
REMARK                         _______ _______ _______ _____ _____    ______ ____
ROOT
ATOM      1  O   HOH     1      32.950  19.828   2.499  0.00  0.00    +0.000 OA
ENDROOT
TORSDOF 0
REMARK  Name = ../refined-set-2016/1toj/1toj_pocket.pdb
REMARK  156 active torsions:
REMARK  status: ('A' for Active; 'I' for Inactive)
REMARK    1  A    between atoms: _1  and  _3
REMARK    2  A    between atoms: _3  and  _4
REMARK    3  A    between atoms: _3  and  _6
REMARK    4  A    between atoms: _6  and  _7
REMARK    5  A    between atoms: _11  and  _12
REMARK    6  A    between atoms: _17  and  _19
REMARK    7  A    between atoms: _19  and  _20
REMARK    8  A    between atoms: _19  and  _22
REMARK    9  A    between atoms: _22  and  _23
REMARK   10  A    between atoms: _26  and  _28
REMARK   11  A    between atoms: _28  and  _29
REMARK   12  A    between atoms: _28  and  _31
REMARK   13  A    between atoms: _31  and  _32
REMARK   14  A    between atoms: _35  and  _37
REMARK   15  A    between atoms: _37  and  _38
REMARK   16  A    between atoms: _40  and  _42
REMARK   17  A    between atoms: _42  and  _43
REMARK   18  A    between atoms: _42  and  _45
REMARK   19  A    between atoms: _45  and  _46
REMARK   20  A    between atoms: _49  and  _51
REMARK   21  A    between atoms: _51  and  _52
REMARK   22  A    between atoms: _51  and  _54
REMARK   23  A    between atoms: _54  and  _55
REMARK   24  A    between atoms: _58  and  _60
REMARK   25  A    between atoms: _60  and  _61
REMARK   26  A    between atoms: _63  and  _65
REMARK   27  A    between atoms: _65  and  _66
REMARK   28  A    between atoms: _65  and  _68
REMARK   29  A    between atoms: _68  and  _69
REMARK   30  A    between atoms: _72  and  _74
REMARK   31  A    between atoms: _74  and  _75
REMARK   32  A    between atoms: _77  and  _79
REMARK   33  A    between atoms: _79  and  _80
REMARK   34  A    between atoms: _79  and  _82
REMARK   35  A    between atoms: _85  and  _87
REMARK   36  A    between atoms: _87  and  _88
REMARK   37  A    between atoms: _90  and  _92
REMARK   38  A    between atoms: _92  and  _93
REMARK   39  A    between atoms: _92  and  _95
REMARK   40  A    between atoms: _95  and  _96
REMARK   41  A    between atoms: _98  and  _100
REMARK   42  A    between atoms: _100  and  _101
REMARK   43  A    between atoms: _103  and  _105
REMARK   44  A    between atoms: _105  and  _106
REMARK   45  A    between atoms: _105  and  _108
REMARK   46  A    between atoms: _108  and  _109
REMARK   47  A    between atoms: _112  and  _114
REMARK   48  A    between atoms: _114  and  _115
REMARK   49  A    between atoms: _114  and  _117
REMARK   50  A    between atoms: _117  and  _118
REMARK   51  A    between atoms: _120  and  _122
REMARK   52  A    between atoms: _122  and  _123
REMARK   53  A    between atoms: _122  and  _125
REMARK   54  A    between atoms: _125  and  _126
REMARK   55  A    between atoms: _137  and  _138
REMARK   56  A    between atoms: _143  and  _145
REMARK   57  A    between atoms: _145  and  _146
REMARK   58  A    between atoms: _145  and  _148
REMARK   59  A    between atoms: _148  and  _149
REMARK   60  A    between atoms: _154  and  _156
REMARK   61  A    between atoms: _156  and  _157
REMARK   62  A    between atoms: _156  and  _159
REMARK   63  A    between atoms: _159  and  _160
REMARK   64  A    between atoms: _165  and  _167
REMARK   65  A    between atoms: _167  and  _168
REMARK   66  A    between atoms: _167  and  _170
REMARK   67  A    between atoms: _170  and  _171
REMARK   68  A    between atoms: _177  and  _178
REMARK   69  A    between atoms: _183  and  _185
REMARK   70  A    between atoms: _185  and  _186
REMARK   71  A    between atoms: _189  and  _191
REMARK   72  A    between atoms: _191  and  _192
REMARK   73  A    between atoms: _191  and  _194
REMARK   74  A    between atoms: _194  and  _195
REMARK   75  A    between atoms: _200  and  _201
REMARK   76  A    between atoms: _203  and  _205
REMARK   77  A    between atoms: _205  and  _206
REMARK   78  A    between atoms: _205  and  _208
REMARK   79  A    between atoms: _208  and  _209
REMARK   80  A    between atoms: _211  and  _213
REMARK   81  A    between atoms: _213  and  _214
REMARK   82  A    between atoms: _213  and  _216
REMARK   83  A    between atoms: _216  and  _217
REMARK   84  A    between atoms: _224  and  _225
REMARK   85  A    between atoms: _225  and  _241
REMARK   86  A    between atoms: _226  and  _228
REMARK   87  A    between atoms: _228  and  _229
REMARK   88  A    between atoms: _229  and  _230
REMARK   89  A    between atoms: _234  and  _236
REMARK   90  A    between atoms: _236  and  _237
REMARK   91  A    between atoms: _236  and  _244
REMARK   92  A    between atoms: _237  and  _238
REMARK   93  A    between atoms: _238  and  _239
REMARK   94  A    between atoms: _239  and  _240
REMARK   95  A    between atoms: _240  and  _241
REMARK   96  A    between atoms: _246  and  _248
REMARK   97  A    between atoms: _248  and  _249
REMARK   98  A    between atoms: _248  and  _251
REMARK   99  A    between atoms: _251  and  _252
REMARK  100  A    between atoms: _257  and  _258
REMARK  101  A    between atoms: _260  and  _262
REMARK  102  A    between atoms: _262  and  _263
REMARK  103  A    between atoms: _262  and  _265
REMARK  104  A    between atoms: _265  and  _266
REMARK  105  A    between atoms: _266  and  _267
REMARK  106  A    between atoms: _267  and  _268
REMARK  107  A    between atoms: _277  and  _279
REMARK  108  A    between atoms: _279  and  _280
REMARK  109  A    between atoms: _279  and  _282
REMARK  110  A    between atoms: _282  and  _283
REMARK  111  A    between atoms: _283  and  _284
REMARK  112  A    between atoms: _286  and  _288
REMARK  113  A    between atoms: _288  and  _289
REMARK  114  A    between atoms: _288  and  _291
REMARK  115  A    between atoms: _291  and  _292
REMARK  116  A    between atoms: _298  and  _300
REMARK  117  A    between atoms: _300  and  _301
REMARK  118  A    between atoms: _300  and  _303
REMARK  119  A    between atoms: _306  and  _308
REMARK  120  A    between atoms: _308  and  _309
REMARK  121  A    between atoms: _308  and  _311
REMARK  122  A    between atoms: _311  and  _312
REMARK  123  A    between atoms: _312  and  _313
REMARK  124  A    between atoms: _313  and  _314
REMARK  125  A    between atoms: _323  and  _325
REMARK  126  A    between atoms: _325  and  _326
REMARK  127  A    between atoms: _325  and  _328
REMARK  128  A    between atoms: _328  and  _329
REMARK  129  A    between atoms: _334  and  _336
REMARK  130  A    between atoms: _336  and  _337
REMARK  131  A    between atoms: _336  and  _339
REMARK  132  A    between atoms: _339  and  _340
REMARK  133  A    between atoms: _345  and  _346
REMARK  134  A    between atoms: _348  and  _350
REMARK  135  A    between atoms: _350  and  _351
REMARK  136  A    between atoms: _350  and  _353
REMARK  137  A    between atoms: _353  and  _354
REMARK  138  A    between atoms: _357  and  _359
REMARK  139  A    between atoms: _359  and  _360
REMARK  140  A    between atoms: _359  and  _362
REMARK  141  A    between atoms: _362  and  _363
REMARK  142  A    between atoms: _363  and  _364
REMARK  143  A    between atoms: _364  and  _365
REMARK  144  A    between atoms: _374  and  _376
REMARK  145  A    between atoms: _376  and  _377
REMARK  146  A    between atoms: _376  and  _379
REMARK  147  A    between atoms: _379  and  _380
REMARK  148  A    between atoms: _385  and  _386
REMARK  149  A    between atoms: _388  and  _390
REMARK  150  A    between atoms: _390  and  _391
REMARK  151  A    between atoms: _390  and  _393
REMARK  152  A    between atoms: _393  and  _394
REMARK  153  A    between atoms: _396  and  _398
REMARK  154  A    between atoms: _398  and  _399
REMARK  155  A    between atoms: _398  and  _401
REMARK  156  A    between atoms: _401  and  _402
REMARK                            x       y       z     vdW  Elec       q    Type
REMARK                         _______ _______ _______ _____ _____    ______ ____
ROOT
ATOM      1  O   HOH     1      33.728  23.486  -2.749  0.00  0.00    +0.000 OA
ENDROOT
TORSDOF 0
REMARK  Name = ../refined-set-2016/1toj/1toj_pocket.pdb
REMARK  156 active torsions:
REMARK  status: ('A' for Active; 'I' for Inactive)
REMARK    1  A    between atoms: _1  and  _3
REMARK    2  A    between atoms: _3  and  _4
REMARK    3  A    between atoms: _3  and  _6
REMARK    4  A    between atoms: _6  and  _7
REMARK    5  A    between atoms: _11  and  _12
REMARK    6  A    between atoms: _17  and  _19
REMARK    7  A    between atoms: _19  and  _20
REMARK    8  A    between atoms: _19  and  _22
REMARK    9  A    between atoms: _22  and  _23
REMARK   10  A    between atoms: _26  and  _28
REMARK   11  A    between atoms: _28  and  _29
REMARK   12  A    between atoms: _28  and  _31
REMARK   13  A    between atoms: _31  and  _32
REMARK   14  A    between atoms: _35  and  _37
REMARK   15  A    between atoms: _37  and  _38
REMARK   16  A    between atoms: _40  and  _42
REMARK   17  A    between atoms: _42  and  _43
REMARK   18  A    between atoms: _42  and  _45
REMARK   19  A    between atoms: _45  and  _46
REMARK   20  A    between atoms: _49  and  _51
REMARK   21  A    between atoms: _51  and  _52
REMARK   22  A    between atoms: _51  and  _54
REMARK   23  A    between atoms: _54  and  _55
REMARK   24  A    between atoms: _58  and  _60
REMARK   25  A    between atoms: _60  and  _61
REMARK   26  A    between atoms: _63  and  _65
REMARK   27  A    between atoms: _65  and  _66
REMARK   28  A    between atoms: _65  and  _68
REMARK   29  A    between atoms: _68  and  _69
REMARK   30  A    between atoms: _72  and  _74
REMARK   31  A    between atoms: _74  and  _75
REMARK   32  A    between atoms: _77  and  _79
REMARK   33  A    between atoms: _79  and  _80
REMARK   34  A    between atoms: _79  and  _82
REMARK   35  A    between atoms: _85  and  _87
REMARK   36  A    between atoms: _87  and  _88
REMARK   37  A    between atoms: _90  and  _92
REMARK   38  A    between atoms: _92  and  _93
REMARK   39  A    between atoms: _92  and  _95
REMARK   40  A    between atoms: _95  and  _96
REMARK   41  A    between atoms: _98  and  _100
REMARK   42  A    between atoms: _100  and  _101
REMARK   43  A    between atoms: _103  and  _105
REMARK   44  A    between atoms: _105  and  _106
REMARK   45  A    between atoms: _105  and  _108
REMARK   46  A    between atoms: _108  and  _109
REMARK   47  A    between atoms: _112  and  _114
REMARK   48  A    between atoms: _114  and  _115
REMARK   49  A    between atoms: _114  and  _117
REMARK   50  A    between atoms: _117  and  _118
REMARK   51  A    between atoms: _120  and  _122
REMARK   52  A    between atoms: _122  and  _123
REMARK   53  A    between atoms: _122  and  _125
REMARK   54  A    between atoms: _125  and  _126
REMARK   55  A    between atoms: _137  and  _138
REMARK   56  A    between atoms: _143  and  _145
REMARK   57  A    between atoms: _145  and  _146
REMARK   58  A    between atoms: _145  and  _148
REMARK   59  A    between atoms: _148  and  _149
REMARK   60  A    between atoms: _154  and  _156
REMARK   61  A    between atoms: _156  and  _157
REMARK   62  A    between atoms: _156  and  _159
REMARK   63  A    between atoms: _159  and  _160
REMARK   64  A    between atoms: _165  and  _167
REMARK   65  A    between atoms: _167  and  _168
REMARK   66  A    between atoms: _167  and  _170
REMARK   67  A    between atoms: _170  and  _171
REMARK   68  A    between atoms: _177  and  _178
REMARK   69  A    between atoms: _183  and  _185
REMARK   70  A    between atoms: _185  and  _186
REMARK   71  A    between atoms: _189  and  _191
REMARK   72  A    between atoms: _191  and  _192
REMARK   73  A    between atoms: _191  and  _194
REMARK   74  A    between atoms: _194  and  _195
REMARK   75  A    between atoms: _200  and  _201
REMARK   76  A    between atoms: _203  and  _205
REMARK   77  A    between atoms: _205  and  _206
REMARK   78  A    between atoms: _205  and  _208
REMARK   79  A    between atoms: _208  and  _209
REMARK   80  A    between atoms: _211  and  _213
REMARK   81  A    between atoms: _213  and  _214
REMARK   82  A    between atoms: _213  and  _216
REMARK   83  A    between atoms: _216  and  _217
REMARK   84  A    between atoms: _224  and  _225
REMARK   85  A    between atoms: _225  and  _241
REMARK   86  A    between atoms: _226  and  _228
REMARK   87  A    between atoms: _228  and  _229
REMARK   88  A    between atoms: _229  and  _230
REMARK   89  A    between atoms: _234  and  _236
REMARK   90  A    between atoms: _236  and  _237
REMARK   91  A    between atoms: _236  and  _244
REMARK   92  A    between atoms: _237  and  _238
REMARK   93  A    between atoms: _238  and  _239
REMARK   94  A    between atoms: _239  and  _240
REMARK   95  A    between atoms: _240  and  _241
REMARK   96  A    between atoms: _246  and  _248
REMARK   97  A    between atoms: _248  and  _249
REMARK   98  A    between atoms: _248  and  _251
REMARK   99  A    between atoms: _251  and  _252
REMARK  100  A    between atoms: _257  and  _258
REMARK  101  A    between atoms: _260  and  _262
REMARK  102  A    between atoms: _262  and  _263
REMARK  103  A    between atoms: _262  and  _265
REMARK  104  A    between atoms: _265  and  _266
REMARK  105  A    between atoms: _266  and  _267
REMARK  106  A    between atoms: _267  and  _268
REMARK  107  A    between atoms: _277  and  _279
REMARK  108  A    between atoms: _279  and  _280
REMARK  109  A    between atoms: _279  and  _282
REMARK  110  A    between atoms: _282  and  _283
REMARK  111  A    between atoms: _283  and  _284
REMARK  112  A    between atoms: _286  and  _288
REMARK  113  A    between atoms: _288  and  _289
REMARK  114  A    between atoms: _288  and  _291
REMARK  115  A    between atoms: _291  and  _292
REMARK  116  A    between atoms: _298  and  _300
REMARK  117  A    between atoms: _300  and  _301
REMARK  118  A    between atoms: _300  and  _303
REMARK  119  A    between atoms: _306  and  _308
REMARK  120  A    between atoms: _308  and  _309
REMARK  121  A    between atoms: _308  and  _311
REMARK  122  A    between atoms: _311  and  _312
REMARK  123  A    between atoms: _312  and  _313
REMARK  124  A    between atoms: _313  and  _314
REMARK  125  A    between atoms: _323  and  _325
REMARK  126  A    between atoms: _325  and  _326
REMARK  127  A    between atoms: _325  and  _328
REMARK  128  A    between atoms: _328  and  _329
REMARK  129  A    between atoms: _334  and  _336
REMARK  130  A    between atoms: _336  and  _337
REMARK  131  A    between atoms: _336  and  _339
REMARK  132  A    between atoms: _339  and  _340
REMARK  133  A    between atoms: _345  and  _346
REMARK  134  A    between atoms: _348  and  _350
REMARK  135  A    between atoms: _350  and  _351
REMARK  136  A    between atoms: _350  and  _353
REMARK  137  A    between atoms: _353  and  _354
REMARK  138  A    between atoms: _357  and  _359
REMARK  139  A    between atoms: _359  and  _360
REMARK  140  A    between atoms: _359  and  _362
REMARK  141  A    between atoms: _362  and  _363
REMARK  142  A    between atoms: _363  and  _364
REMARK  143  A    between atoms: _364  and  _365
REMARK  144  A    between atoms: _374  and  _376
REMARK  145  A    between atoms: _376  and  _377
REMARK  146  A    between atoms: _376  and  _379
REMARK  147  A    between atoms: _379  and  _380
REMARK  148  A    between atoms: _385  and  _386
REMARK  149  A    between atoms: _388  and  _390
REMARK  150  A    between atoms: _390  and  _391
REMARK  151  A    between atoms: _390  and  _393
REMARK  152  A    between atoms: _393  and  _394
REMARK  153  A    between atoms: _396  and  _398
REMARK  154  A    between atoms: _398  and  _399
REMARK  155  A    between atoms: _398  and  _401
REMARK  156  A    between atoms: _401  and  _402
REMARK                            x       y       z     vdW  Elec       q    Type
REMARK                         _______ _______ _______ _____ _____    ______ ____
ROOT
ATOM      1  O   HOH     1      27.589  29.492   1.060  0.00  0.00    +0.000 OA
ENDROOT
TORSDOF 0
REMARK  Name = ../refined-set-2016/1toj/1toj_pocket.pdb
REMARK  156 active torsions:
REMARK  status: ('A' for Active; 'I' for Inactive)
REMARK    1  A    between atoms: _1  and  _3
REMARK    2  A    between atoms: _3  and  _4
REMARK    3  A    between atoms: _3  and  _6
REMARK    4  A    between atoms: _6  and  _7
REMARK    5  A    between atoms: _11  and  _12
REMARK    6  A    between atoms: _17  and  _19
REMARK    7  A    between atoms: _19  and  _20
REMARK    8  A    between atoms: _19  and  _22
REMARK    9  A    between atoms: _22  and  _23
REMARK   10  A    between atoms: _26  and  _28
REMARK   11  A    between atoms: _28  and  _29
REMARK   12  A    between atoms: _28  and  _31
REMARK   13  A    between atoms: _31  and  _32
REMARK   14  A    between atoms: _35  and  _37
REMARK   15  A    between atoms: _37  and  _38
REMARK   16  A    between atoms: _40  and  _42
REMARK   17  A    between atoms: _42  and  _43
REMARK   18  A    between atoms: _42  and  _45
REMARK   19  A    between atoms: _45  and  _46
REMARK   20  A    between atoms: _49  and  _51
REMARK   21  A    between atoms: _51  and  _52
REMARK   22  A    between atoms: _51  and  _54
REMARK   23  A    between atoms: _54  and  _55
REMARK   24  A    between atoms: _58  and  _60
REMARK   25  A    between atoms: _60  and  _61
REMARK   26  A    between atoms: _63  and  _65
REMARK   27  A    between atoms: _65  and  _66
REMARK   28  A    between atoms: _65  and  _68
REMARK   29  A    between atoms: _68  and  _69
REMARK   30  A    between atoms: _72  and  _74
REMARK   31  A    between atoms: _74  and  _75
REMARK   32  A    between atoms: _77  and  _79
REMARK   33  A    between atoms: _79  and  _80
REMARK   34  A    between atoms: _79  and  _82
REMARK   35  A    between atoms: _85  and  _87
REMARK   36  A    between atoms: _87  and  _88
REMARK   37  A    between atoms: _90  and  _92
REMARK   38  A    between atoms: _92  and  _93
REMARK   39  A    between atoms: _92  and  _95
REMARK   40  A    between atoms: _95  and  _96
REMARK   41  A    between atoms: _98  and  _100
REMARK   42  A    between atoms: _100  and  _101
REMARK   43  A    between atoms: _103  and  _105
REMARK   44  A    between atoms: _105  and  _106
REMARK   45  A    between atoms: _105  and  _108
REMARK   46  A    between atoms: _108  and  _109
REMARK   47  A    between atoms: _112  and  _114
REMARK   48  A    between atoms: _114  and  _115
REMARK   49  A    between atoms: _114  and  _117
REMARK   50  A    between atoms: _117  and  _118
REMARK   51  A    between atoms: _120  and  _122
REMARK   52  A    between atoms: _122  and  _123
REMARK   53  A    between atoms: _122  and  _125
REMARK   54  A    between atoms: _125  and  _126
REMARK   55  A    between atoms: _137  and  _138
REMARK   56  A    between atoms: _143  and  _145
REMARK   57  A    between atoms: _145  and  _146
REMARK   58  A    between atoms: _145  and  _148
REMARK   59  A    between atoms: _148  and  _149
REMARK   60  A    between atoms: _154  and  _156
REMARK   61  A    between atoms: _156  and  _157
REMARK   62  A    between atoms: _156  and  _159
REMARK   63  A    between atoms: _159  and  _160
REMARK   64  A    between atoms: _165  and  _167
REMARK   65  A    between atoms: _167  and  _168
REMARK   66  A    between atoms: _167  and  _170
REMARK   67  A    between atoms: _170  and  _171
REMARK   68  A    between atoms: _177  and  _178
REMARK   69  A    between atoms: _183  and  _185
REMARK   70  A    between atoms: _185  and  _186
REMARK   71  A    between atoms: _189  and  _191
REMARK   72  A    between atoms: _191  and  _192
REMARK   73  A    between atoms: _191  and  _194
REMARK   74  A    between atoms: _194  and  _195
REMARK   75  A    between atoms: _200  and  _201
REMARK   76  A    between atoms: _203  and  _205
REMARK   77  A    between atoms: _205  and  _206
REMARK   78  A    between atoms: _205  and  _208
REMARK   79  A    between atoms: _208  and  _209
REMARK   80  A    between atoms: _211  and  _213
REMARK   81  A    between atoms: _213  and  _214
REMARK   82  A    between atoms: _213  and  _216
REMARK   83  A    between atoms: _216  and  _217
REMARK   84  A    between atoms: _224  and  _225
REMARK   85  A    between atoms: _225  and  _241
REMARK   86  A    between atoms: _226  and  _228
REMARK   87  A    between atoms: _228  and  _229
REMARK   88  A    between atoms: _229  and  _230
REMARK   89  A    between atoms: _234  and  _236
REMARK   90  A    between atoms: _236  and  _237
REMARK   91  A    between atoms: _236  and  _244
REMARK   92  A    between atoms: _237  and  _238
REMARK   93  A    between atoms: _238  and  _239
REMARK   94  A    between atoms: _239  and  _240
REMARK   95  A    between atoms: _240  and  _241
REMARK   96  A    between atoms: _246  and  _248
REMARK   97  A    between atoms: _248  and  _249
REMARK   98  A    between atoms: _248  and  _251
REMARK   99  A    between atoms: _251  and  _252
REMARK  100  A    between atoms: _257  and  _258
REMARK  101  A    between atoms: _260  and  _262
REMARK  102  A    between atoms: _262  and  _263
REMARK  103  A    between atoms: _262  and  _265
REMARK  104  A    between atoms: _265  and  _266
REMARK  105  A    between atoms: _266  and  _267
REMARK  106  A    between atoms: _267  and  _268
REMARK  107  A    between atoms: _277  and  _279
REMARK  108  A    between atoms: _279  and  _280
REMARK  109  A    between atoms: _279  and  _282
REMARK  110  A    between atoms: _282  and  _283
REMARK  111  A    between atoms: _283  and  _284
REMARK  112  A    between atoms: _286  and  _288
REMARK  113  A    between atoms: _288  and  _289
REMARK  114  A    between atoms: _288  and  _291
REMARK  115  A    between atoms: _291  and  _292
REMARK  116  A    between atoms: _298  and  _300
REMARK  117  A    between atoms: _300  and  _301
REMARK  118  A    between atoms: _300  and  _303
REMARK  119  A    between atoms: _306  and  _308
REMARK  120  A    between atoms: _308  and  _309
REMARK  121  A    between atoms: _308  and  _311
REMARK  122  A    between atoms: _311  and  _312
REMARK  123  A    between atoms: _312  and  _313
REMARK  124  A    between atoms: _313  and  _314
REMARK  125  A    between atoms: _323  and  _325
REMARK  126  A    between atoms: _325  and  _326
REMARK  127  A    between atoms: _325  and  _328
REMARK  128  A    between atoms: _328  and  _329
REMARK  129  A    between atoms: _334  and  _336
REMARK  130  A    between atoms: _336  and  _337
REMARK  131  A    between atoms: _336  and  _339
REMARK  132  A    between atoms: _339  and  _340
REMARK  133  A    between atoms: _345  and  _346
REMARK  134  A    between atoms: _348  and  _350
REMARK  135  A    between atoms: _350  and  _351
REMARK  136  A    between atoms: _350  and  _353
REMARK  137  A    between atoms: _353  and  _354
REMARK  138  A    between atoms: _357  and  _359
REMARK  139  A    between atoms: _359  and  _360
REMARK  140  A    between atoms: _359  and  _362
REMARK  141  A    between atoms: _362  and  _363
REMARK  142  A    between atoms: _363  and  _364
REMARK  143  A    between atoms: _364  and  _365
REMARK  144  A    between atoms: _374  and  _376
REMARK  145  A    between atoms: _376  and  _377
REMARK  146  A    between atoms: _376  and  _379
REMARK  147  A    between atoms: _379  and  _380
REMARK  148  A    between atoms: _385  and  _386
REMARK  149  A    between atoms: _388  and  _390
REMARK  150  A    between atoms: _390  and  _391
REMARK  151  A    between atoms: _390  and  _393
REMARK  152  A    between atoms: _393  and  _394
REMARK  153  A    between atoms: _396  and  _398
REMARK  154  A    between atoms: _398  and  _399
REMARK  155  A    between atoms: _398  and  _401
REMARK  156  A    between atoms: _401  and  _402
REMARK                            x       y       z     vdW  Elec       q    Type
REMARK                         _______ _______ _______ _____ _____    ______ ____
ROOT
ATOM      1  O   HOH     1      26.607  31.189   3.030  0.00  0.00    +0.000 OA
ENDROOT
TORSDOF 0
REMARK  Name = ../refined-set-2016/1toj/1toj_pocket.pdb
REMARK  156 active torsions:
REMARK  status: ('A' for Active; 'I' for Inactive)
REMARK    1  A    between atoms: _1  and  _3
REMARK    2  A    between atoms: _3  and  _4
REMARK    3  A    between atoms: _3  and  _6
REMARK    4  A    between atoms: _6  and  _7
REMARK    5  A    between atoms: _11  and  _12
REMARK    6  A    between atoms: _17  and  _19
REMARK    7  A    between atoms: _19  and  _20
REMARK    8  A    between atoms: _19  and  _22
REMARK    9  A    between atoms: _22  and  _23
REMARK   10  A    between atoms: _26  and  _28
REMARK   11  A    between atoms: _28  and  _29
REMARK   12  A    between atoms: _28  and  _31
REMARK   13  A    between atoms: _31  and  _32
REMARK   14  A    between atoms: _35  and  _37
REMARK   15  A    between atoms: _37  and  _38
REMARK   16  A    between atoms: _40  and  _42
REMARK   17  A    between atoms: _42  and  _43
REMARK   18  A    between atoms: _42  and  _45
REMARK   19  A    between atoms: _45  and  _46
REMARK   20  A    between atoms: _49  and  _51
REMARK   21  A    between atoms: _51  and  _52
REMARK   22  A    between atoms: _51  and  _54
REMARK   23  A    between atoms: _54  and  _55
REMARK   24  A    between atoms: _58  and  _60
REMARK   25  A    between atoms: _60  and  _61
REMARK   26  A    between atoms: _63  and  _65
REMARK   27  A    between atoms: _65  and  _66
REMARK   28  A    between atoms: _65  and  _68
REMARK   29  A    between atoms: _68  and  _69
REMARK   30  A    between atoms: _72  and  _74
REMARK   31  A    between atoms: _74  and  _75
REMARK   32  A    between atoms: _77  and  _79
REMARK   33  A    between atoms: _79  and  _80
REMARK   34  A    between atoms: _79  and  _82
REMARK   35  A    between atoms: _85  and  _87
REMARK   36  A    between atoms: _87  and  _88
REMARK   37  A    between atoms: _90  and  _92
REMARK   38  A    between atoms: _92  and  _93
REMARK   39  A    between atoms: _92  and  _95
REMARK   40  A    between atoms: _95  and  _96
REMARK   41  A    between atoms: _98  and  _100
REMARK   42  A    between atoms: _100  and  _101
REMARK   43  A    between atoms: _103  and  _105
REMARK   44  A    between atoms: _105  and  _106
REMARK   45  A    between atoms: _105  and  _108
REMARK   46  A    between atoms: _108  and  _109
REMARK   47  A    between atoms: _112  and  _114
REMARK   48  A    between atoms: _114  and  _115
REMARK   49  A    between atoms: _114  and  _117
REMARK   50  A    between atoms: _117  and  _118
REMARK   51  A    between atoms: _120  and  _122
REMARK   52  A    between atoms: _122  and  _123
REMARK   53  A    between atoms: _122  and  _125
REMARK   54  A    between atoms: _125  and  _126
REMARK   55  A    between atoms: _137  and  _138
REMARK   56  A    between atoms: _143  and  _145
REMARK   57  A    between atoms: _145  and  _146
REMARK   58  A    between atoms: _145  and  _148
REMARK   59  A    between atoms: _148  and  _149
REMARK   60  A    between atoms: _154  and  _156
REMARK   61  A    between atoms: _156  and  _157
REMARK   62  A    between atoms: _156  and  _159
REMARK   63  A    between atoms: _159  and  _160
REMARK   64  A    between atoms: _165  and  _167
REMARK   65  A    between atoms: _167  and  _168
REMARK   66  A    between atoms: _167  and  _170
REMARK   67  A    between atoms: _170  and  _171
REMARK   68  A    between atoms: _177  and  _178
REMARK   69  A    between atoms: _183  and  _185
REMARK   70  A    between atoms: _185  and  _186
REMARK   71  A    between atoms: _189  and  _191
REMARK   72  A    between atoms: _191  and  _192
REMARK   73  A    between atoms: _191  and  _194
REMARK   74  A    between atoms: _194  and  _195
REMARK   75  A    between atoms: _200  and  _201
REMARK   76  A    between atoms: _203  and  _205
REMARK   77  A    between atoms: _205  and  _206
REMARK   78  A    between atoms: _205  and  _208
REMARK   79  A    between atoms: _208  and  _209
REMARK   80  A    between atoms: _211  and  _213
REMARK   81  A    between atoms: _213  and  _214
REMARK   82  A    between atoms: _213  and  _216
REMARK   83  A    between atoms: _216  and  _217
REMARK   84  A    between atoms: _224  and  _225
REMARK   85  A    between atoms: _225  and  _241
REMARK   86  A    between atoms: _226  and  _228
REMARK   87  A    between atoms: _228  and  _229
REMARK   88  A    between atoms: _229  and  _230
REMARK   89  A    between atoms: _234  and  _236
REMARK   90  A    between atoms: _236  and  _237
REMARK   91  A    between atoms: _236  and  _244
REMARK   92  A    between atoms: _237  and  _238
REMARK   93  A    between atoms: _238  and  _239
REMARK   94  A    between atoms: _239  and  _240
REMARK   95  A    between atoms: _240  and  _241
REMARK   96  A    between atoms: _246  and  _248
REMARK   97  A    between atoms: _248  and  _249
REMARK   98  A    between atoms: _248  and  _251
REMARK   99  A    between atoms: _251  and  _252
REMARK  100  A    between atoms: _257  and  _258
REMARK  101  A    between atoms: _260  and  _262
REMARK  102  A    between atoms: _262  and  _263
REMARK  103  A    between atoms: _262  and  _265
REMARK  104  A    between atoms: _265  and  _266
REMARK  105  A    between atoms: _266  and  _267
REMARK  106  A    between atoms: _267  and  _268
REMARK  107  A    between atoms: _277  and  _279
REMARK  108  A    between atoms: _279  and  _280
REMARK  109  A    between atoms: _279  and  _282
REMARK  110  A    between atoms: _282  and  _283
REMARK  111  A    between atoms: _283  and  _284
REMARK  112  A    between atoms: _286  and  _288
REMARK  113  A    between atoms: _288  and  _289
REMARK  114  A    between atoms: _288  and  _291
REMARK  115  A    between atoms: _291  and  _292
REMARK  116  A    between atoms: _298  and  _300
REMARK  117  A    between atoms: _300  and  _301
REMARK  118  A    between atoms: _300  and  _303
REMARK  119  A    between atoms: _306  and  _308
REMARK  120  A    between atoms: _308  and  _309
REMARK  121  A    between atoms: _308  and  _311
REMARK  122  A    between atoms: _311  and  _312
REMARK  123  A    between atoms: _312  and  _313
REMARK  124  A    between atoms: _313  and  _314
REMARK  125  A    between atoms: _323  and  _325
REMARK  126  A    between atoms: _325  and  _326
REMARK  127  A    between atoms: _325  and  _328
REMARK  128  A    between atoms: _328  and  _329
REMARK  129  A    between atoms: _334  and  _336
REMARK  130  A    between atoms: _336  and  _337
REMARK  131  A    between atoms: _336  and  _339
REMARK  132  A    between atoms: _339  and  _340
REMARK  133  A    between atoms: _345  and  _346
REMARK  134  A    between atoms: _348  and  _350
REMARK  135  A    between atoms: _350  and  _351
REMARK  136  A    between atoms: _350  and  _353
REMARK  137  A    between atoms: _353  and  _354
REMARK  138  A    between atoms: _357  and  _359
REMARK  139  A    between atoms: _359  and  _360
REMARK  140  A    between atoms: _359  and  _362
REMARK  141  A    between atoms: _362  and  _363
REMARK  142  A    between atoms: _363  and  _364
REMARK  143  A    between atoms: _364  and  _365
REMARK  144  A    between atoms: _374  and  _376
REMARK  145  A    between atoms: _376  and  _377
REMARK  146  A    between atoms: _376  and  _379
REMARK  147  A    between atoms: _379  and  _380
REMARK  148  A    between atoms: _385  and  _386
REMARK  149  A    between atoms: _388  and  _390
REMARK  150  A    between atoms: _390  and  _391
REMARK  151  A    between atoms: _390  and  _393
REMARK  152  A    between atoms: _393  and  _394
REMARK  153  A    between atoms: _396  and  _398
REMARK  154  A    between atoms: _398  and  _399
REMARK  155  A    between atoms: _398  and  _401
REMARK  156  A    between atoms: _401  and  _402
REMARK                            x       y       z     vdW  Elec       q    Type
REMARK                         _______ _______ _______ _____ _____    ______ ____
ROOT
ATOM      1  O   HOH     1      36.916  29.317  12.826  0.00  0.00    +0.000 OA
ENDROOT
TORSDOF 0
REMARK  Name = ../refined-set-2016/1toj/1toj_pocket.pdb
REMARK  156 active torsions:
REMARK  status: ('A' for Active; 'I' for Inactive)
REMARK    1  A    between atoms: _1  and  _3
REMARK    2  A    between atoms: _3  and  _4
REMARK    3  A    between atoms: _3  and  _6
REMARK    4  A    between atoms: _6  and  _7
REMARK    5  A    between atoms: _11  and  _12
REMARK    6  A    between atoms: _17  and  _19
REMARK    7  A    between atoms: _19  and  _20
REMARK    8  A    between atoms: _19  and  _22
REMARK    9  A    between atoms: _22  and  _23
REMARK   10  A    between atoms: _26  and  _28
REMARK   11  A    between atoms: _28  and  _29
REMARK   12  A    between atoms: _28  and  _31
REMARK   13  A    between atoms: _31  and  _32
REMARK   14  A    between atoms: _35  and  _37
REMARK   15  A    between atoms: _37  and  _38
REMARK   16  A    between atoms: _40  and  _42
REMARK   17  A    between atoms: _42  and  _43
REMARK   18  A    between atoms: _42  and  _45
REMARK   19  A    between atoms: _45  and  _46
REMARK   20  A    between atoms: _49  and  _51
REMARK   21  A    between atoms: _51  and  _52
REMARK   22  A    between atoms: _51  and  _54
REMARK   23  A    between atoms: _54  and  _55
REMARK   24  A    between atoms: _58  and  _60
REMARK   25  A    between atoms: _60  and  _61
REMARK   26  A    between atoms: _63  and  _65
REMARK   27  A    between atoms: _65  and  _66
REMARK   28  A    between atoms: _65  and  _68
REMARK   29  A    between atoms: _68  and  _69
REMARK   30  A    between atoms: _72  and  _74
REMARK   31  A    between atoms: _74  and  _75
REMARK   32  A    between atoms: _77  and  _79
REMARK   33  A    between atoms: _79  and  _80
REMARK   34  A    between atoms: _79  and  _82
REMARK   35  A    between atoms: _85  and  _87
REMARK   36  A    between atoms: _87  and  _88
REMARK   37  A    between atoms: _90  and  _92
REMARK   38  A    between atoms: _92  and  _93
REMARK   39  A    between atoms: _92  and  _95
REMARK   40  A    between atoms: _95  and  _96
REMARK   41  A    between atoms: _98  and  _100
REMARK   42  A    between atoms: _100  and  _101
REMARK   43  A    between atoms: _103  and  _105
REMARK   44  A    between atoms: _105  and  _106
REMARK   45  A    between atoms: _105  and  _108
REMARK   46  A    between atoms: _108  and  _109
REMARK   47  A    between atoms: _112  and  _114
REMARK   48  A    between atoms: _114  and  _115
REMARK   49  A    between atoms: _114  and  _117
REMARK   50  A    between atoms: _117  and  _118
REMARK   51  A    between atoms: _120  and  _122
REMARK   52  A    between atoms: _122  and  _123
REMARK   53  A    between atoms: _122  and  _125
REMARK   54  A    between atoms: _125  and  _126
REMARK   55  A    between atoms: _137  and  _138
REMARK   56  A    between atoms: _143  and  _145
REMARK   57  A    between atoms: _145  and  _146
REMARK   58  A    between atoms: _145  and  _148
REMARK   59  A    between atoms: _148  and  _149
REMARK   60  A    between atoms: _154  and  _156
REMARK   61  A    between atoms: _156  and  _157
REMARK   62  A    between atoms: _156  and  _159
REMARK   63  A    between atoms: _159  and  _160
REMARK   64  A    between atoms: _165  and  _167
REMARK   65  A    between atoms: _167  and  _168
REMARK   66  A    between atoms: _167  and  _170
REMARK   67  A    between atoms: _170  and  _171
REMARK   68  A    between atoms: _177  and  _178
REMARK   69  A    between atoms: _183  and  _185
REMARK   70  A    between atoms: _185  and  _186
REMARK   71  A    between atoms: _189  and  _191
REMARK   72  A    between atoms: _191  and  _192
REMARK   73  A    between atoms: _191  and  _194
REMARK   74  A    between atoms: _194  and  _195
REMARK   75  A    between atoms: _200  and  _201
REMARK   76  A    between atoms: _203  and  _205
REMARK   77  A    between atoms: _205  and  _206
REMARK   78  A    between atoms: _205  and  _208
REMARK   79  A    between atoms: _208  and  _209
REMARK   80  A    between atoms: _211  and  _213
REMARK   81  A    between atoms: _213  and  _214
REMARK   82  A    between atoms: _213  and  _216
REMARK   83  A    between atoms: _216  and  _217
REMARK   84  A    between atoms: _224  and  _225
REMARK   85  A    between atoms: _225  and  _241
REMARK   86  A    between atoms: _226  and  _228
REMARK   87  A    between atoms: _228  and  _229
REMARK   88  A    between atoms: _229  and  _230
REMARK   89  A    between atoms: _234  and  _236
REMARK   90  A    between atoms: _236  and  _237
REMARK   91  A    between atoms: _236  and  _244
REMARK   92  A    between atoms: _237  and  _238
REMARK   93  A    between atoms: _238  and  _239
REMARK   94  A    between atoms: _239  and  _240
REMARK   95  A    between atoms: _240  and  _241
REMARK   96  A    between atoms: _246  and  _248
REMARK   97  A    between atoms: _248  and  _249
REMARK   98  A    between atoms: _248  and  _251
REMARK   99  A    between atoms: _251  and  _252
REMARK  100  A    between atoms: _257  and  _258
REMARK  101  A    between atoms: _260  and  _262
REMARK  102  A    between atoms: _262  and  _263
REMARK  103  A    between atoms: _262  and  _265
REMARK  104  A    between atoms: _265  and  _266
REMARK  105  A    between atoms: _266  and  _267
REMARK  106  A    between atoms: _267  and  _268
REMARK  107  A    between atoms: _277  and  _279
REMARK  108  A    between atoms: _279  and  _280
REMARK  109  A    between atoms: _279  and  _282
REMARK  110  A    between atoms: _282  and  _283
REMARK  111  A    between atoms: _283  and  _284
REMARK  112  A    between atoms: _286  and  _288
REMARK  113  A    between atoms: _288  and  _289
REMARK  114  A    between atoms: _288  and  _291
REMARK  115  A    between atoms: _291  and  _292
REMARK  116  A    between atoms: _298  and  _300
REMARK  117  A    between atoms: _300  and  _301
REMARK  118  A    between atoms: _300  and  _303
REMARK  119  A    between atoms: _306  and  _308
REMARK  120  A    between atoms: _308  and  _309
REMARK  121  A    between atoms: _308  and  _311
REMARK  122  A    between atoms: _311  and  _312
REMARK  123  A    between atoms: _312  and  _313
REMARK  124  A    between atoms: _313  and  _314
REMARK  125  A    between atoms: _323  and  _325
REMARK  126  A    between atoms: _325  and  _326
REMARK  127  A    between atoms: _325  and  _328
REMARK  128  A    between atoms: _328  and  _329
REMARK  129  A    between atoms: _334  and  _336
REMARK  130  A    between atoms: _336  and  _337
REMARK  131  A    between atoms: _336  and  _339
REMARK  132  A    between atoms: _339  and  _340
REMARK  133  A    between atoms: _345  and  _346
REMARK  134  A    between atoms: _348  and  _350
REMARK  135  A    between atoms: _350  and  _351
REMARK  136  A    between atoms: _350  and  _353
REMARK  137  A    between atoms: _353  and  _354
REMARK  138  A    between atoms: _357  and  _359
REMARK  139  A    between atoms: _359  and  _360
REMARK  140  A    between atoms: _359  and  _362
REMARK  141  A    between atoms: _362  and  _363
REMARK  142  A    between atoms: _363  and  _364
REMARK  143  A    between atoms: _364  and  _365
REMARK  144  A    between atoms: _374  and  _376
REMARK  145  A    between atoms: _376  and  _377
REMARK  146  A    between atoms: _376  and  _379
REMARK  147  A    between atoms: _379  and  _380
REMARK  148  A    between atoms: _385  and  _386
REMARK  149  A    between atoms: _388  and  _390
REMARK  150  A    between atoms: _390  and  _391
REMARK  151  A    between atoms: _390  and  _393
REMARK  152  A    between atoms: _393  and  _394
REMARK  153  A    between atoms: _396  and  _398
REMARK  154  A    between atoms: _398  and  _399
REMARK  155  A    between atoms: _398  and  _401
REMARK  156  A    between atoms: _401  and  _402
REMARK                            x       y       z     vdW  Elec       q    Type
REMARK                         _______ _______ _______ _____ _____    ______ ____
ROOT
ATOM      1  O   HOH     1      33.984  22.765  12.783  0.00  0.00    +0.000 OA
ENDROOT
TORSDOF 0
REMARK  Name = ../refined-set-2016/1toj/1toj_pocket.pdb
REMARK  156 active torsions:
REMARK  status: ('A' for Active; 'I' for Inactive)
REMARK    1  A    between atoms: _1  and  _3
REMARK    2  A    between atoms: _3  and  _4
REMARK    3  A    between atoms: _3  and  _6
REMARK    4  A    between atoms: _6  and  _7
REMARK    5  A    between atoms: _11  and  _12
REMARK    6  A    between atoms: _17  and  _19
REMARK    7  A    between atoms: _19  and  _20
REMARK    8  A    between atoms: _19  and  _22
REMARK    9  A    between atoms: _22  and  _23
REMARK   10  A    between atoms: _26  and  _28
REMARK   11  A    between atoms: _28  and  _29
REMARK   12  A    between atoms: _28  and  _31
REMARK   13  A    between atoms: _31  and  _32
REMARK   14  A    between atoms: _35  and  _37
REMARK   15  A    between atoms: _37  and  _38
REMARK   16  A    between atoms: _40  and  _42
REMARK   17  A    between atoms: _42  and  _43
REMARK   18  A    between atoms: _42  and  _45
REMARK   19  A    between atoms: _45  and  _46
REMARK   20  A    between atoms: _49  and  _51
REMARK   21  A    between atoms: _51  and  _52
REMARK   22  A    between atoms: _51  and  _54
REMARK   23  A    between atoms: _54  and  _55
REMARK   24  A    between atoms: _58  and  _60
REMARK   25  A    between atoms: _60  and  _61
REMARK   26  A    between atoms: _63  and  _65
REMARK   27  A    between atoms: _65  and  _66
REMARK   28  A    between atoms: _65  and  _68
REMARK   29  A    between atoms: _68  and  _69
REMARK   30  A    between atoms: _72  and  _74
REMARK   31  A    between atoms: _74  and  _75
REMARK   32  A    between atoms: _77  and  _79
REMARK   33  A    between atoms: _79  and  _80
REMARK   34  A    between atoms: _79  and  _82
REMARK   35  A    between atoms: _85  and  _87
REMARK   36  A    between atoms: _87  and  _88
REMARK   37  A    between atoms: _90  and  _92
REMARK   38  A    between atoms: _92  and  _93
REMARK   39  A    between atoms: _92  and  _95
REMARK   40  A    between atoms: _95  and  _96
REMARK   41  A    between atoms: _98  and  _100
REMARK   42  A    between atoms: _100  and  _101
REMARK   43  A    between atoms: _103  and  _105
REMARK   44  A    between atoms: _105  and  _106
REMARK   45  A    between atoms: _105  and  _108
REMARK   46  A    between atoms: _108  and  _109
REMARK   47  A    between atoms: _112  and  _114
REMARK   48  A    between atoms: _114  and  _115
REMARK   49  A    between atoms: _114  and  _117
REMARK   50  A    between atoms: _117  and  _118
REMARK   51  A    between atoms: _120  and  _122
REMARK   52  A    between atoms: _122  and  _123
REMARK   53  A    between atoms: _122  and  _125
REMARK   54  A    between atoms: _125  and  _126
REMARK   55  A    between atoms: _137  and  _138
REMARK   56  A    between atoms: _143  and  _145
REMARK   57  A    between atoms: _145  and  _146
REMARK   58  A    between atoms: _145  and  _148
REMARK   59  A    between atoms: _148  and  _149
REMARK   60  A    between atoms: _154  and  _156
REMARK   61  A    between atoms: _156  and  _157
REMARK   62  A    between atoms: _156  and  _159
REMARK   63  A    between atoms: _159  and  _160
REMARK   64  A    between atoms: _165  and  _167
REMARK   65  A    between atoms: _167  and  _168
REMARK   66  A    between atoms: _167  and  _170
REMARK   67  A    between atoms: _170  and  _171
REMARK   68  A    between atoms: _177  and  _178
REMARK   69  A    between atoms: _183  and  _185
REMARK   70  A    between atoms: _185  and  _186
REMARK   71  A    between atoms: _189  and  _191
REMARK   72  A    between atoms: _191  and  _192
REMARK   73  A    between atoms: _191  and  _194
REMARK   74  A    between atoms: _194  and  _195
REMARK   75  A    between atoms: _200  and  _201
REMARK   76  A    between atoms: _203  and  _205
REMARK   77  A    between atoms: _205  and  _206
REMARK   78  A    between atoms: _205  and  _208
REMARK   79  A    between atoms: _208  and  _209
REMARK   80  A    between atoms: _211  and  _213
REMARK   81  A    between atoms: _213  and  _214
REMARK   82  A    between atoms: _213  and  _216
REMARK   83  A    between atoms: _216  and  _217
REMARK   84  A    between atoms: _224  and  _225
REMARK   85  A    between atoms: _225  and  _241
REMARK   86  A    between atoms: _226  and  _228
REMARK   87  A    between atoms: _228  and  _229
REMARK   88  A    between atoms: _229  and  _230
REMARK   89  A    between atoms: _234  and  _236
REMARK   90  A    between atoms: _236  and  _237
REMARK   91  A    between atoms: _236  and  _244
REMARK   92  A    between atoms: _237  and  _238
REMARK   93  A    between atoms: _238  and  _239
REMARK   94  A    between atoms: _239  and  _240
REMARK   95  A    between atoms: _240  and  _241
REMARK   96  A    between atoms: _246  and  _248
REMARK   97  A    between atoms: _248  and  _249
REMARK   98  A    between atoms: _248  and  _251
REMARK   99  A    between atoms: _251  and  _252
REMARK  100  A    between atoms: _257  and  _258
REMARK  101  A    between atoms: _260  and  _262
REMARK  102  A    between atoms: _262  and  _263
REMARK  103  A    between atoms: _262  and  _265
REMARK  104  A    between atoms: _265  and  _266
REMARK  105  A    between atoms: _266  and  _267
REMARK  106  A    between atoms: _267  and  _268
REMARK  107  A    between atoms: _277  and  _279
REMARK  108  A    between atoms: _279  and  _280
REMARK  109  A    between atoms: _279  and  _282
REMARK  110  A    between atoms: _282  and  _283
REMARK  111  A    between atoms: _283  and  _284
REMARK  112  A    between atoms: _286  and  _288
REMARK  113  A    between atoms: _288  and  _289
REMARK  114  A    between atoms: _288  and  _291
REMARK  115  A    between atoms: _291  and  _292
REMARK  116  A    between atoms: _298  and  _300
REMARK  117  A    between atoms: _300  and  _301
REMARK  118  A    between atoms: _300  and  _303
REMARK  119  A    between atoms: _306  and  _308
REMARK  120  A    between atoms: _308  and  _309
REMARK  121  A    between atoms: _308  and  _311
REMARK  122  A    between atoms: _311  and  _312
REMARK  123  A    between atoms: _312  and  _313
REMARK  124  A    between atoms: _313  and  _314
REMARK  125  A    between atoms: _323  and  _325
REMARK  126  A    between atoms: _325  and  _326
REMARK  127  A    between atoms: _325  and  _328
REMARK  128  A    between atoms: _328  and  _329
REMARK  129  A    between atoms: _334  and  _336
REMARK  130  A    between atoms: _336  and  _337
REMARK  131  A    between atoms: _336  and  _339
REMARK  132  A    between atoms: _339  and  _340
REMARK  133  A    between atoms: _345  and  _346
REMARK  134  A    between atoms: _348  and  _350
REMARK  135  A    between atoms: _350  and  _351
REMARK  136  A    between atoms: _350  and  _353
REMARK  137  A    between atoms: _353  and  _354
REMARK  138  A    between atoms: _357  and  _359
REMARK  139  A    between atoms: _359  and  _360
REMARK  140  A    between atoms: _359  and  _362
REMARK  141  A    between atoms: _362  and  _363
REMARK  142  A    between atoms: _363  and  _364
REMARK  143  A    between atoms: _364  and  _365
REMARK  144  A    between atoms: _374  and  _376
REMARK  145  A    between atoms: _376  and  _377
REMARK  146  A    between atoms: _376  and  _379
REMARK  147  A    between atoms: _379  and  _380
REMARK  148  A    between atoms: _385  and  _386
REMARK  149  A    between atoms: _388  and  _390
REMARK  150  A    between atoms: _390  and  _391
REMARK  151  A    between atoms: _390  and  _393
REMARK  152  A    between atoms: _393  and  _394
REMARK  153  A    between atoms: _396  and  _398
REMARK  154  A    between atoms: _398  and  _399
REMARK  155  A    between atoms: _398  and  _401
REMARK  156  A    between atoms: _401  and  _402
REMARK                            x       y       z     vdW  Elec       q    Type
REMARK                         _______ _______ _______ _____ _____    ______ ____
ROOT
ATOM      1  O   HOH     1      28.048  17.962  10.491  0.00  0.00    +0.000 OA
ENDROOT
TORSDOF 0
REMARK  Name = ../refined-set-2016/1toj/1toj_pocket.pdb
REMARK  156 active torsions:
REMARK  status: ('A' for Active; 'I' for Inactive)
REMARK    1  A    between atoms: _1  and  _3
REMARK    2  A    between atoms: _3  and  _4
REMARK    3  A    between atoms: _3  and  _6
REMARK    4  A    between atoms: _6  and  _7
REMARK    5  A    between atoms: _11  and  _12
REMARK    6  A    between atoms: _17  and  _19
REMARK    7  A    between atoms: _19  and  _20
REMARK    8  A    between atoms: _19  and  _22
REMARK    9  A    between atoms: _22  and  _23
REMARK   10  A    between atoms: _26  and  _28
REMARK   11  A    between atoms: _28  and  _29
REMARK   12  A    between atoms: _28  and  _31
REMARK   13  A    between atoms: _31  and  _32
REMARK   14  A    between atoms: _35  and  _37
REMARK   15  A    between atoms: _37  and  _38
REMARK   16  A    between atoms: _40  and  _42
REMARK   17  A    between atoms: _42  and  _43
REMARK   18  A    between atoms: _42  and  _45
REMARK   19  A    between atoms: _45  and  _46
REMARK   20  A    between atoms: _49  and  _51
REMARK   21  A    between atoms: _51  and  _52
REMARK   22  A    between atoms: _51  and  _54
REMARK   23  A    between atoms: _54  and  _55
REMARK   24  A    between atoms: _58  and  _60
REMARK   25  A    between atoms: _60  and  _61
REMARK   26  A    between atoms: _63  and  _65
REMARK   27  A    between atoms: _65  and  _66
REMARK   28  A    between atoms: _65  and  _68
REMARK   29  A    between atoms: _68  and  _69
REMARK   30  A    between atoms: _72  and  _74
REMARK   31  A    between atoms: _74  and  _75
REMARK   32  A    between atoms: _77  and  _79
REMARK   33  A    between atoms: _79  and  _80
REMARK   34  A    between atoms: _79  and  _82
REMARK   35  A    between atoms: _85  and  _87
REMARK   36  A    between atoms: _87  and  _88
REMARK   37  A    between atoms: _90  and  _92
REMARK   38  A    between atoms: _92  and  _93
REMARK   39  A    between atoms: _92  and  _95
REMARK   40  A    between atoms: _95  and  _96
REMARK   41  A    between atoms: _98  and  _100
REMARK   42  A    between atoms: _100  and  _101
REMARK   43  A    between atoms: _103  and  _105
REMARK   44  A    between atoms: _105  and  _106
REMARK   45  A    between atoms: _105  and  _108
REMARK   46  A    between atoms: _108  and  _109
REMARK   47  A    between atoms: _112  and  _114
REMARK   48  A    between atoms: _114  and  _115
REMARK   49  A    between atoms: _114  and  _117
REMARK   50  A    between atoms: _117  and  _118
REMARK   51  A    between atoms: _120  and  _122
REMARK   52  A    between atoms: _122  and  _123
REMARK   53  A    between atoms: _122  and  _125
REMARK   54  A    between atoms: _125  and  _126
REMARK   55  A    between atoms: _137  and  _138
REMARK   56  A    between atoms: _143  and  _145
REMARK   57  A    between atoms: _145  and  _146
REMARK   58  A    between atoms: _145  and  _148
REMARK   59  A    between atoms: _148  and  _149
REMARK   60  A    between atoms: _154  and  _156
REMARK   61  A    between atoms: _156  and  _157
REMARK   62  A    between atoms: _156  and  _159
REMARK   63  A    between atoms: _159  and  _160
REMARK   64  A    between atoms: _165  and  _167
REMARK   65  A    between atoms: _167  and  _168
REMARK   66  A    between atoms: _167  and  _170
REMARK   67  A    between atoms: _170  and  _171
REMARK   68  A    between atoms: _177  and  _178
REMARK   69  A    between atoms: _183  and  _185
REMARK   70  A    between atoms: _185  and  _186
REMARK   71  A    between atoms: _189  and  _191
REMARK   72  A    between atoms: _191  and  _192
REMARK   73  A    between atoms: _191  and  _194
REMARK   74  A    between atoms: _194  and  _195
REMARK   75  A    between atoms: _200  and  _201
REMARK   76  A    between atoms: _203  and  _205
REMARK   77  A    between atoms: _205  and  _206
REMARK   78  A    between atoms: _205  and  _208
REMARK   79  A    between atoms: _208  and  _209
REMARK   80  A    between atoms: _211  and  _213
REMARK   81  A    between atoms: _213  and  _214
REMARK   82  A    between atoms: _213  and  _216
REMARK   83  A    between atoms: _216  and  _217
REMARK   84  A    between atoms: _224  and  _225
REMARK   85  A    between atoms: _225  and  _241
REMARK   86  A    between atoms: _226  and  _228
REMARK   87  A    between atoms: _228  and  _229
REMARK   88  A    between atoms: _229  and  _230
REMARK   89  A    between atoms: _234  and  _236
REMARK   90  A    between atoms: _236  and  _237
REMARK   91  A    between atoms: _236  and  _244
REMARK   92  A    between atoms: _237  and  _238
REMARK   93  A    between atoms: _238  and  _239
REMARK   94  A    between atoms: _239  and  _240
REMARK   95  A    between atoms: _240  and  _241
REMARK   96  A    between atoms: _246  and  _248
REMARK   97  A    between atoms: _248  and  _249
REMARK   98  A    between atoms: _248  and  _251
REMARK   99  A    between atoms: _251  and  _252
REMARK  100  A    between atoms: _257  and  _258
REMARK  101  A    between atoms: _260  and  _262
REMARK  102  A    between atoms: _262  and  _263
REMARK  103  A    between atoms: _262  and  _265
REMARK  104  A    between atoms: _265  and  _266
REMARK  105  A    between atoms: _266  and  _267
REMARK  106  A    between atoms: _267  and  _268
REMARK  107  A    between atoms: _277  and  _279
REMARK  108  A    between atoms: _279  and  _280
REMARK  109  A    between atoms: _279  and  _282
REMARK  110  A    between atoms: _282  and  _283
REMARK  111  A    between atoms: _283  and  _284
REMARK  112  A    between atoms: _286  and  _288
REMARK  113  A    between atoms: _288  and  _289
REMARK  114  A    between atoms: _288  and  _291
REMARK  115  A    between atoms: _291  and  _292
REMARK  116  A    between atoms: _298  and  _300
REMARK  117  A    between atoms: _300  and  _301
REMARK  118  A    between atoms: _300  and  _303
REMARK  119  A    between atoms: _306  and  _308
REMARK  120  A    between atoms: _308  and  _309
REMARK  121  A    between atoms: _308  and  _311
REMARK  122  A    between atoms: _311  and  _312
REMARK  123  A    between atoms: _312  and  _313
REMARK  124  A    between atoms: _313  and  _314
REMARK  125  A    between atoms: _323  and  _325
REMARK  126  A    between atoms: _325  and  _326
REMARK  127  A    between atoms: _325  and  _328
REMARK  128  A    between atoms: _328  and  _329
REMARK  129  A    between atoms: _334  and  _336
REMARK  130  A    between atoms: _336  and  _337
REMARK  131  A    between atoms: _336  and  _339
REMARK  132  A    between atoms: _339  and  _340
REMARK  133  A    between atoms: _345  and  _346
REMARK  134  A    between atoms: _348  and  _350
REMARK  135  A    between atoms: _350  and  _351
REMARK  136  A    between atoms: _350  and  _353
REMARK  137  A    between atoms: _353  and  _354
REMARK  138  A    between atoms: _357  and  _359
REMARK  139  A    between atoms: _359  and  _360
REMARK  140  A    between atoms: _359  and  _362
REMARK  141  A    between atoms: _362  and  _363
REMARK  142  A    between atoms: _363  and  _364
REMARK  143  A    between atoms: _364  and  _365
REMARK  144  A    between atoms: _374  and  _376
REMARK  145  A    between atoms: _376  and  _377
REMARK  146  A    between atoms: _376  and  _379
REMARK  147  A    between atoms: _379  and  _380
REMARK  148  A    between atoms: _385  and  _386
REMARK  149  A    between atoms: _388  and  _390
REMARK  150  A    between atoms: _390  and  _391
REMARK  151  A    between atoms: _390  and  _393
REMARK  152  A    between atoms: _393  and  _394
REMARK  153  A    between atoms: _396  and  _398
REMARK  154  A    between atoms: _398  and  _399
REMARK  155  A    between atoms: _398  and  _401
REMARK  156  A    between atoms: _401  and  _402
REMARK                            x       y       z     vdW  Elec       q    Type
REMARK                         _______ _______ _______ _____ _____    ______ ____
ROOT
ATOM      1  O   HOH     1      28.211  21.059  13.735  0.00  0.00    +0.000 OA
ENDROOT
TORSDOF 0
REMARK  Name = ../refined-set-2016/1toj/1toj_pocket.pdb
REMARK  156 active torsions:
REMARK  status: ('A' for Active; 'I' for Inactive)
REMARK    1  A    between atoms: _1  and  _3
REMARK    2  A    between atoms: _3  and  _4
REMARK    3  A    between atoms: _3  and  _6
REMARK    4  A    between atoms: _6  and  _7
REMARK    5  A    between atoms: _11  and  _12
REMARK    6  A    between atoms: _17  and  _19
REMARK    7  A    between atoms: _19  and  _20
REMARK    8  A    between atoms: _19  and  _22
REMARK    9  A    between atoms: _22  and  _23
REMARK   10  A    between atoms: _26  and  _28
REMARK   11  A    between atoms: _28  and  _29
REMARK   12  A    between atoms: _28  and  _31
REMARK   13  A    between atoms: _31  and  _32
REMARK   14  A    between atoms: _35  and  _37
REMARK   15  A    between atoms: _37  and  _38
REMARK   16  A    between atoms: _40  and  _42
REMARK   17  A    between atoms: _42  and  _43
REMARK   18  A    between atoms: _42  and  _45
REMARK   19  A    between atoms: _45  and  _46
REMARK   20  A    between atoms: _49  and  _51
REMARK   21  A    between atoms: _51  and  _52
REMARK   22  A    between atoms: _51  and  _54
REMARK   23  A    between atoms: _54  and  _55
REMARK   24  A    between atoms: _58  and  _60
REMARK   25  A    between atoms: _60  and  _61
REMARK   26  A    between atoms: _63  and  _65
REMARK   27  A    between atoms: _65  and  _66
REMARK   28  A    between atoms: _65  and  _68
REMARK   29  A    between atoms: _68  and  _69
REMARK   30  A    between atoms: _72  and  _74
REMARK   31  A    between atoms: _74  and  _75
REMARK   32  A    between atoms: _77  and  _79
REMARK   33  A    between atoms: _79  and  _80
REMARK   34  A    between atoms: _79  and  _82
REMARK   35  A    between atoms: _85  and  _87
REMARK   36  A    between atoms: _87  and  _88
REMARK   37  A    between atoms: _90  and  _92
REMARK   38  A    between atoms: _92  and  _93
REMARK   39  A    between atoms: _92  and  _95
REMARK   40  A    between atoms: _95  and  _96
REMARK   41  A    between atoms: _98  and  _100
REMARK   42  A    between atoms: _100  and  _101
REMARK   43  A    between atoms: _103  and  _105
REMARK   44  A    between atoms: _105  and  _106
REMARK   45  A    between atoms: _105  and  _108
REMARK   46  A    between atoms: _108  and  _109
REMARK   47  A    between atoms: _112  and  _114
REMARK   48  A    between atoms: _114  and  _115
REMARK   49  A    between atoms: _114  and  _117
REMARK   50  A    between atoms: _117  and  _118
REMARK   51  A    between atoms: _120  and  _122
REMARK   52  A    between atoms: _122  and  _123
REMARK   53  A    between atoms: _122  and  _125
REMARK   54  A    between atoms: _125  and  _126
REMARK   55  A    between atoms: _137  and  _138
REMARK   56  A    between atoms: _143  and  _145
REMARK   57  A    between atoms: _145  and  _146
REMARK   58  A    between atoms: _145  and  _148
REMARK   59  A    between atoms: _148  and  _149
REMARK   60  A    between atoms: _154  and  _156
REMARK   61  A    between atoms: _156  and  _157
REMARK   62  A    between atoms: _156  and  _159
REMARK   63  A    between atoms: _159  and  _160
REMARK   64  A    between atoms: _165  and  _167
REMARK   65  A    between atoms: _167  and  _168
REMARK   66  A    between atoms: _167  and  _170
REMARK   67  A    between atoms: _170  and  _171
REMARK   68  A    between atoms: _177  and  _178
REMARK   69  A    between atoms: _183  and  _185
REMARK   70  A    between atoms: _185  and  _186
REMARK   71  A    between atoms: _189  and  _191
REMARK   72  A    between atoms: _191  and  _192
REMARK   73  A    between atoms: _191  and  _194
REMARK   74  A    between atoms: _194  and  _195
REMARK   75  A    between atoms: _200  and  _201
REMARK   76  A    between atoms: _203  and  _205
REMARK   77  A    between atoms: _205  and  _206
REMARK   78  A    between atoms: _205  and  _208
REMARK   79  A    between atoms: _208  and  _209
REMARK   80  A    between atoms: _211  and  _213
REMARK   81  A    between atoms: _213  and  _214
REMARK   82  A    between atoms: _213  and  _216
REMARK   83  A    between atoms: _216  and  _217
REMARK   84  A    between atoms: _224  and  _225
REMARK   85  A    between atoms: _225  and  _241
REMARK   86  A    between atoms: _226  and  _228
REMARK   87  A    between atoms: _228  and  _229
REMARK   88  A    between atoms: _229  and  _230
REMARK   89  A    between atoms: _234  and  _236
REMARK   90  A    between atoms: _236  and  _237
REMARK   91  A    between atoms: _236  and  _244
REMARK   92  A    between atoms: _237  and  _238
REMARK   93  A    between atoms: _238  and  _239
REMARK   94  A    between atoms: _239  and  _240
REMARK   95  A    between atoms: _240  and  _241
REMARK   96  A    between atoms: _246  and  _248
REMARK   97  A    between atoms: _248  and  _249
REMARK   98  A    between atoms: _248  and  _251
REMARK   99  A    between atoms: _251  and  _252
REMARK  100  A    between atoms: _257  and  _258
REMARK  101  A    between atoms: _260  and  _262
REMARK  102  A    between atoms: _262  and  _263
REMARK  103  A    between atoms: _262  and  _265
REMARK  104  A    between atoms: _265  and  _266
REMARK  105  A    between atoms: _266  and  _267
REMARK  106  A    between atoms: _267  and  _268
REMARK  107  A    between atoms: _277  and  _279
REMARK  108  A    between atoms: _279  and  _280
REMARK  109  A    between atoms: _279  and  _282
REMARK  110  A    between atoms: _282  and  _283
REMARK  111  A    between atoms: _283  and  _284
REMARK  112  A    between atoms: _286  and  _288
REMARK  113  A    between atoms: _288  and  _289
REMARK  114  A    between atoms: _288  and  _291
REMARK  115  A    between atoms: _291  and  _292
REMARK  116  A    between atoms: _298  and  _300
REMARK  117  A    between atoms: _300  and  _301
REMARK  118  A    between atoms: _300  and  _303
REMARK  119  A    between atoms: _306  and  _308
REMARK  120  A    between atoms: _308  and  _309
REMARK  121  A    between atoms: _308  and  _311
REMARK  122  A    between atoms: _311  and  _312
REMARK  123  A    between atoms: _312  and  _313
REMARK  124  A    between atoms: _313  and  _314
REMARK  125  A    between atoms: _323  and  _325
REMARK  126  A    between atoms: _325  and  _326
REMARK  127  A    between atoms: _325  and  _328
REMARK  128  A    between atoms: _328  and  _329
REMARK  129  A    between atoms: _334  and  _336
REMARK  130  A    between atoms: _336  and  _337
REMARK  131  A    between atoms: _336  and  _339
REMARK  132  A    between atoms: _339  and  _340
REMARK  133  A    between atoms: _345  and  _346
REMARK  134  A    between atoms: _348  and  _350
REMARK  135  A    between atoms: _350  and  _351
REMARK  136  A    between atoms: _350  and  _353
REMARK  137  A    between atoms: _353  and  _354
REMARK  138  A    between atoms: _357  and  _359
REMARK  139  A    between atoms: _359  and  _360
REMARK  140  A    between atoms: _359  and  _362
REMARK  141  A    between atoms: _362  and  _363
REMARK  142  A    between atoms: _363  and  _364
REMARK  143  A    between atoms: _364  and  _365
REMARK  144  A    between atoms: _374  and  _376
REMARK  145  A    between atoms: _376  and  _377
REMARK  146  A    between atoms: _376  and  _379
REMARK  147  A    between atoms: _379  and  _380
REMARK  148  A    between atoms: _385  and  _386
REMARK  149  A    between atoms: _388  and  _390
REMARK  150  A    between atoms: _390  and  _391
REMARK  151  A    between atoms: _390  and  _393
REMARK  152  A    between atoms: _393  and  _394
REMARK  153  A    between atoms: _396  and  _398
REMARK  154  A    between atoms: _398  and  _399
REMARK  155  A    between atoms: _398  and  _401
REMARK  156  A    between atoms: _401  and  _402
REMARK                            x       y       z     vdW  Elec       q    Type
REMARK                         _______ _______ _______ _____ _____    ______ ____
ROOT
ATOM      1  O   HOH     1      31.981  27.383  13.796  0.00  0.00    +0.000 OA
ENDROOT
TORSDOF 0
