REMARK  Name = ../refined-set-2016/4a4w/4a4w_pocket.pdb
REMARK  248 active torsions:
REMARK  status: ('A' for Active; 'I' for Inactive)
REMARK    1  A    between atoms: _1  and  _3
REMARK    2  A    between atoms: _3  and  _4
REMARK    3  A    between atoms: _3  and  _6
REMARK    4  A    between atoms: _6  and  _7
REMARK    5  A    between atoms: _14  and  _15
REMARK    6  A    between atoms: _20  and  _22
REMARK    7  A    between atoms: _22  and  _23
REMARK    8  A    between atoms: _22  and  _25
REMARK    9  A    between atoms: _25  and  _26
REMARK   10  A    between atoms: _29  and  _31
REMARK   11  A    between atoms: _31  and  _32
REMARK   12  A    between atoms: _31  and  _34
REMARK   13  A    between atoms: _34  and  _35
REMARK   14  A    between atoms: _38  and  _40
REMARK   15  A    between atoms: _40  and  _41
REMARK   16  A    between atoms: _40  and  _43
REMARK   17  A    between atoms: _43  and  _44
REMARK   18  A    between atoms: _46  and  _48
REMARK   19  A    between atoms: _48  and  _49
REMARK   20  A    between atoms: _48  and  _51
REMARK   21  A    between atoms: _51  and  _52
REMARK   22  A    between atoms: _55  and  _57
REMARK   23  A    between atoms: _57  and  _58
REMARK   24  A    between atoms: _57  and  _60
REMARK   25  A    between atoms: _60  and  _61
REMARK   26  A    between atoms: _61  and  _62
REMARK   27  A    between atoms: _64  and  _66
REMARK   28  A    between atoms: _66  and  _67
REMARK   29  A    between atoms: _69  and  _71
REMARK   30  A    between atoms: _71  and  _72
REMARK   31  A    between atoms: _71  and  _74
REMARK   32  A    between atoms: _74  and  _75
REMARK   33  A    between atoms: _75  and  _76
REMARK   34  A    between atoms: _79  and  _81
REMARK   35  A    between atoms: _81  and  _82
REMARK   36  A    between atoms: _81  and  _84
REMARK   37  A    between atoms: _84  and  _85
REMARK   38  A    between atoms: _88  and  _90
REMARK   39  A    between atoms: _90  and  _91
REMARK   40  A    between atoms: _90  and  _93
REMARK   41  A    between atoms: _93  and  _94
REMARK   42  A    between atoms: _94  and  _95
REMARK   43  A    between atoms: _98  and  _100
REMARK   44  A    between atoms: _100  and  _101
REMARK   45  A    between atoms: _100  and  _103
REMARK   46  A    between atoms: _106  and  _108
REMARK   47  A    between atoms: _108  and  _109
REMARK   48  A    between atoms: _112  and  _114
REMARK   49  A    between atoms: _114  and  _115
REMARK   50  A    between atoms: _114  and  _117
REMARK   51  A    between atoms: _117  and  _118
REMARK   52  A    between atoms: _121  and  _123
REMARK   53  A    between atoms: _123  and  _124
REMARK   54  A    between atoms: _123  and  _126
REMARK   55  A    between atoms: _126  and  _127
REMARK   56  A    between atoms: _127  and  _128
REMARK   57  A    between atoms: _128  and  _129
REMARK   58  A    between atoms: _138  and  _140
REMARK   59  A    between atoms: _140  and  _141
REMARK   60  A    between atoms: _140  and  _143
REMARK   61  A    between atoms: _143  and  _144
REMARK   62  A    between atoms: _147  and  _149
REMARK   63  A    between atoms: _149  and  _150
REMARK   64  A    between atoms: _149  and  _152
REMARK   65  A    between atoms: _152  and  _153
REMARK   66  A    between atoms: _159  and  _161
REMARK   67  A    between atoms: _161  and  _162
REMARK   68  A    between atoms: _161  and  _164
REMARK   69  A    between atoms: _164  and  _165
REMARK   70  A    between atoms: _165  and  _166
REMARK   71  A    between atoms: _171  and  _173
REMARK   72  A    between atoms: _173  and  _174
REMARK   73  A    between atoms: _176  and  _178
REMARK   74  A    between atoms: _178  and  _179
REMARK   75  A    between atoms: _178  and  _181
REMARK   76  A    between atoms: _183  and  _185
REMARK   77  A    between atoms: _185  and  _186
REMARK   78  A    between atoms: _185  and  _188
REMARK   79  A    between atoms: _188  and  _189
REMARK   80  A    between atoms: _189  and  _190
REMARK   81  A    between atoms: _195  and  _197
REMARK   82  A    between atoms: _197  and  _198
REMARK   83  A    between atoms: _197  and  _200
REMARK   84  A    between atoms: _200  and  _201
REMARK   85  A    between atoms: _207  and  _209
REMARK   86  A    between atoms: _209  and  _210
REMARK   87  A    between atoms: _209  and  _212
REMARK   88  A    between atoms: _212  and  _213
REMARK   89  A    between atoms: _213  and  _214
REMARK   90  A    between atoms: _214  and  _215
REMARK   91  A    between atoms: _224  and  _226
REMARK   92  A    between atoms: _226  and  _227
REMARK   93  A    between atoms: _226  and  _229
REMARK   94  A    between atoms: _229  and  _230
REMARK   95  A    between atoms: _232  and  _234
REMARK   96  A    between atoms: _234  and  _235
REMARK   97  A    between atoms: _234  and  _237
REMARK   98  A    between atoms: _240  and  _242
REMARK   99  A    between atoms: _242  and  _243
REMARK  100  A    between atoms: _242  and  _245
REMARK  101  A    between atoms: _245  and  _246
REMARK  102  A    between atoms: _246  and  _247
REMARK  103  A    between atoms: _250  and  _252
REMARK  104  A    between atoms: _252  and  _253
REMARK  105  A    between atoms: _256  and  _258
REMARK  106  A    between atoms: _258  and  _259
REMARK  107  A    between atoms: _258  and  _261
REMARK  108  A    between atoms: _264  and  _266
REMARK  109  A    between atoms: _266  and  _267
REMARK  110  A    between atoms: _266  and  _269
REMARK  111  A    between atoms: _269  and  _270
REMARK  112  A    between atoms: _270  and  _271
REMARK  113  A    between atoms: _274  and  _276
REMARK  114  A    between atoms: _276  and  _277
REMARK  115  A    between atoms: _276  and  _279
REMARK  116  A    between atoms: _279  and  _280
REMARK  117  A    between atoms: _283  and  _285
REMARK  118  A    between atoms: _285  and  _286
REMARK  119  A    between atoms: _285  and  _288
REMARK  120  A    between atoms: _291  and  _293
REMARK  121  A    between atoms: _293  and  _294
REMARK  122  A    between atoms: _293  and  _296
REMARK  123  A    between atoms: _296  and  _297
REMARK  124  A    between atoms: _302  and  _304
REMARK  125  A    between atoms: _304  and  _305
REMARK  126  A    between atoms: _304  and  _307
REMARK  127  A    between atoms: _307  and  _308
REMARK  128  A    between atoms: _308  and  _309
REMARK  129  A    between atoms: _312  and  _314
REMARK  130  A    between atoms: _314  and  _315
REMARK  131  A    between atoms: _314  and  _317
REMARK  132  A    between atoms: _317  and  _318
REMARK  133  A    between atoms: _321  and  _323
REMARK  134  A    between atoms: _323  and  _324
REMARK  135  A    between atoms: _323  and  _326
REMARK  136  A    between atoms: _326  and  _327
REMARK  137  A    between atoms: _330  and  _332
REMARK  138  A    between atoms: _332  and  _333
REMARK  139  A    between atoms: _332  and  _335
REMARK  140  A    between atoms: _335  and  _336
REMARK  141  A    between atoms: _341  and  _342
REMARK  142  A    between atoms: _344  and  _346
REMARK  143  A    between atoms: _346  and  _347
REMARK  144  A    between atoms: _346  and  _349
REMARK  145  A    between atoms: _349  and  _350
REMARK  146  A    between atoms: _353  and  _355
REMARK  147  A    between atoms: _355  and  _356
REMARK  148  A    between atoms: _355  and  _358
REMARK  149  A    between atoms: _358  and  _359
REMARK  150  A    between atoms: _359  and  _360
REMARK  151  A    between atoms: _362  and  _364
REMARK  152  A    between atoms: _364  and  _365
REMARK  153  A    between atoms: _364  and  _367
REMARK  154  A    between atoms: _367  and  _368
REMARK  155  A    between atoms: _371  and  _373
REMARK  156  A    between atoms: _373  and  _374
REMARK  157  A    between atoms: _377  and  _379
REMARK  158  A    between atoms: _379  and  _380
REMARK  159  A    between atoms: _379  and  _382
REMARK  160  A    between atoms: _382  and  _383
REMARK  161  A    between atoms: _385  and  _387
REMARK  162  A    between atoms: _387  and  _388
REMARK  163  A    between atoms: _387  and  _390
REMARK  164  A    between atoms: _390  and  _391
REMARK  165  A    between atoms: _394  and  _396
REMARK  166  A    between atoms: _396  and  _397
REMARK  167  A    between atoms: _396  and  _399
REMARK  168  A    between atoms: _399  and  _400
REMARK  169  A    between atoms: _400  and  _401
REMARK  170  A    between atoms: _403  and  _405
REMARK  171  A    between atoms: _405  and  _406
REMARK  172  A    between atoms: _405  and  _408
REMARK  173  A    between atoms: _411  and  _413
REMARK  174  A    between atoms: _413  and  _414
REMARK  175  A    between atoms: _413  and  _416
REMARK  176  A    between atoms: _416  and  _417
REMARK  177  A    between atoms: _420  and  _422
REMARK  178  A    between atoms: _422  and  _423
REMARK  179  A    between atoms: _422  and  _425
REMARK  180  A    between atoms: _425  and  _426
REMARK  181  A    between atoms: _429  and  _431
REMARK  182  A    between atoms: _431  and  _432
REMARK  183  A    between atoms: _431  and  _434
REMARK  184  A    between atoms: _434  and  _435
REMARK  185  A    between atoms: _437  and  _439
REMARK  186  A    between atoms: _439  and  _440
REMARK  187  A    between atoms: _439  and  _442
REMARK  188  A    between atoms: _442  and  _443
REMARK  189  A    between atoms: _443  and  _444
REMARK  190  A    between atoms: _447  and  _449
REMARK  191  A    between atoms: _449  and  _450
REMARK  192  A    between atoms: _452  and  _454
REMARK  193  A    between atoms: _454  and  _455
REMARK  194  A    between atoms: _454  and  _457
REMARK  195  A    between atoms: _457  and  _458
REMARK  196  A    between atoms: _458  and  _459
REMARK  197  A    between atoms: _464  and  _466
REMARK  198  A    between atoms: _466  and  _467
REMARK  199  A    between atoms: _469  and  _471
REMARK  200  A    between atoms: _471  and  _472
REMARK  201  A    between atoms: _471  and  _474
REMARK  202  A    between atoms: _474  and  _475
REMARK  203  A    between atoms: _475  and  _476
REMARK  204  A    between atoms: _478  and  _480
REMARK  205  A    between atoms: _480  and  _481
REMARK  206  A    between atoms: _480  and  _483
REMARK  207  A    between atoms: _483  and  _484
REMARK  208  A    between atoms: _487  and  _489
REMARK  209  A    between atoms: _489  and  _490
REMARK  210  A    between atoms: _489  and  _492
REMARK  211  A    between atoms: _492  and  _493
REMARK  212  A    between atoms: _499  and  _501
REMARK  213  A    between atoms: _501  and  _502
REMARK  214  A    between atoms: _501  and  _504
REMARK  215  A    between atoms: _504  and  _505
REMARK  216  A    between atoms: _508  and  _510
REMARK  217  A    between atoms: _510  and  _511
REMARK  218  A    between atoms: _510  and  _513
REMARK  219  A    between atoms: _513  and  _514
REMARK  220  A    between atoms: _517  and  _519
REMARK  221  A    between atoms: _519  and  _520
REMARK  222  A    between atoms: _519  and  _522
REMARK  223  A    between atoms: _522  and  _523
REMARK  224  A    between atoms: _529  and  _531
REMARK  225  A    between atoms: _531  and  _532
REMARK  226  A    between atoms: _531  and  _534
REMARK  227  A    between atoms: _534  and  _535
REMARK  228  A    between atoms: _535  and  _536
REMARK  229  A    between atoms: _538  and  _540
REMARK  230  A    between atoms: _540  and  _541
REMARK  231  A    between atoms: _540  and  _543
REMARK  232  A    between atoms: _543  and  _544
REMARK  233  A    between atoms: _544  and  _545
REMARK  234  A    between atoms: _545  and  _546
REMARK  235  A    between atoms: _546  and  _547
REMARK  236  A    between atoms: _551  and  _553
REMARK  237  A    between atoms: _553  and  _554
REMARK  238  A    between atoms: _553  and  _556
REMARK  239  A    between atoms: _556  and  _557
REMARK  240  A    between atoms: _563  and  _565
REMARK  241  A    between atoms: _565  and  _566
REMARK  242  A    between atoms: _565  and  _568
REMARK  243  A    between atoms: _568  and  _569
REMARK  244  A    between atoms: _574  and  _576
REMARK  245  A    between atoms: _576  and  _577
REMARK  246  A    between atoms: _576  and  _579
REMARK  247  A    between atoms: _579  and  _580
REMARK  248  A    between atoms: _585  and  _586
REMARK                            x       y       z     vdW  Elec       q    Type
REMARK                         _______ _______ _______ _____ _____    ______ ____
ROOT
ATOM      1  C   PHE A   1      -2.369  15.342 -12.998  0.00  0.00    +0.242 C 
ATOM      2  O   PHE A   1      -1.949  14.417 -12.313  0.00  0.00    -0.273 OA
ATOM      3  N   PRO A   2      -2.425  16.614 -12.571  0.00  0.00    -0.272 N 
ATOM      4  CA  PRO A   2      -1.915  16.967 -11.251  0.00  0.00    +0.152 C 
ATOM      5  CB  PRO A   2      -2.199  18.480 -11.143  0.00  0.00    +0.031 C 
ATOM      6  CG  PRO A   2      -2.308  18.966 -12.552  0.00  0.00    +0.024 C 
ATOM      7  CD  PRO A   2      -2.932  17.799 -13.294  0.00  0.00    +0.094 C 
ENDROOT
BRANCH   4   8
ATOM      8  C   PRO A   2      -2.621  16.223 -10.116  0.00  0.00    +0.241 C 
ATOM      9  O   PRO A   2      -1.991  15.951  -9.099  0.00  0.00    -0.273 OA
ATOM     10  N   LEU A   3      -3.906  15.899 -10.262  0.00  0.00    -0.298 N 
ATOM     11  H   LEU A   3      -4.417  16.137 -11.136  0.00  0.00    +0.150 HD
BRANCH  10  12
ATOM     12  CA  LEU A   3      -4.583  15.201  -9.168  0.00  0.00    +0.137 C 
BRANCH  12  13
ATOM     13  C   LEU A   3      -4.900  13.751  -9.555  0.00  0.00    +0.227 C 
ATOM     14  O   LEU A   3      -5.834  13.487 -10.297  0.00  0.00    -0.286 OA
ENDBRANCH  12  13
BRANCH  12  15
ATOM     15  CB  LEU A   3      -5.834  15.968  -8.672  0.00  0.00    +0.028 C 
BRANCH  15  16
ATOM     16  CG  LEU A   3      -6.722  15.257  -7.614  0.00  0.00    +0.002 C 
ATOM     17  CD2 LEU A   3      -6.002  14.952  -6.334  0.00  0.00    +0.000 C 
ATOM     18  CD1 LEU A   3      -7.991  16.051  -7.307  0.00  0.00    +0.000 C 
ENDBRANCH  15  16
ENDBRANCH  12  15
ENDBRANCH  10  12
ENDBRANCH   4   8
BRANCH   1  19
ATOM     19  CA  PHE A   1      -2.851  15.064 -14.394  0.00  0.00    +0.149 C 
BRANCH  19  20
ATOM     20  N   PHE A   1      -1.702  14.940 -15.276  0.00  0.00    -0.238 NA
ATOM     21  H   PHE A   1      -1.047  14.143 -15.148  0.00  0.00    +0.142 HD
ENDBRANCH  19  20
BRANCH  19  22
ATOM     22  CB  PHE A   1      -3.703  13.784 -14.454  0.00  0.00    +0.053 C 
BRANCH  22  23
ATOM     23  CG  PHE A   1      -4.148  13.459 -15.828  0.00  0.00    -0.020 A 
ATOM     24  CD2 PHE A   1      -5.072  14.291 -16.483  0.00  0.00    -0.004 A 
ATOM     25  CE2 PHE A   1      -5.491  14.013 -17.780  0.00  0.00    -0.000 A 
ATOM     26  CZ  PHE A   1      -4.992  12.896 -18.443  0.00  0.00    -0.000 A 
ATOM     27  CE1 PHE A   1      -4.076  12.052 -17.793  0.00  0.00    -0.000 A 
ATOM     28  CD1 PHE A   1      -3.656  12.345 -16.493  0.00  0.00    -0.004 A 
ENDBRANCH  22  23
ENDBRANCH  19  22
ENDBRANCH   1  19
TORSDOF 9
REMARK  Name = ../refined-set-2016/4a4w/4a4w_pocket.pdb
REMARK  248 active torsions:
REMARK  status: ('A' for Active; 'I' for Inactive)
REMARK    1  A    between atoms: _1  and  _3
REMARK    2  A    between atoms: _3  and  _4
REMARK    3  A    between atoms: _3  and  _6
REMARK    4  A    between atoms: _6  and  _7
REMARK    5  A    between atoms: _14  and  _15
REMARK    6  A    between atoms: _20  and  _22
REMARK    7  A    between atoms: _22  and  _23
REMARK    8  A    between atoms: _22  and  _25
REMARK    9  A    between atoms: _25  and  _26
REMARK   10  A    between atoms: _29  and  _31
REMARK   11  A    between atoms: _31  and  _32
REMARK   12  A    between atoms: _31  and  _34
REMARK   13  A    between atoms: _34  and  _35
REMARK   14  A    between atoms: _38  and  _40
REMARK   15  A    between atoms: _40  and  _41
REMARK   16  A    between atoms: _40  and  _43
REMARK   17  A    between atoms: _43  and  _44
REMARK   18  A    between atoms: _46  and  _48
REMARK   19  A    between atoms: _48  and  _49
REMARK   20  A    between atoms: _48  and  _51
REMARK   21  A    between atoms: _51  and  _52
REMARK   22  A    between atoms: _55  and  _57
REMARK   23  A    between atoms: _57  and  _58
REMARK   24  A    between atoms: _57  and  _60
REMARK   25  A    between atoms: _60  and  _61
REMARK   26  A    between atoms: _61  and  _62
REMARK   27  A    between atoms: _64  and  _66
REMARK   28  A    between atoms: _66  and  _67
REMARK   29  A    between atoms: _69  and  _71
REMARK   30  A    between atoms: _71  and  _72
REMARK   31  A    between atoms: _71  and  _74
REMARK   32  A    between atoms: _74  and  _75
REMARK   33  A    between atoms: _75  and  _76
REMARK   34  A    between atoms: _79  and  _81
REMARK   35  A    between atoms: _81  and  _82
REMARK   36  A    between atoms: _81  and  _84
REMARK   37  A    between atoms: _84  and  _85
REMARK   38  A    between atoms: _88  and  _90
REMARK   39  A    between atoms: _90  and  _91
REMARK   40  A    between atoms: _90  and  _93
REMARK   41  A    between atoms: _93  and  _94
REMARK   42  A    between atoms: _94  and  _95
REMARK   43  A    between atoms: _98  and  _100
REMARK   44  A    between atoms: _100  and  _101
REMARK   45  A    between atoms: _100  and  _103
REMARK   46  A    between atoms: _106  and  _108
REMARK   47  A    between atoms: _108  and  _109
REMARK   48  A    between atoms: _112  and  _114
REMARK   49  A    between atoms: _114  and  _115
REMARK   50  A    between atoms: _114  and  _117
REMARK   51  A    between atoms: _117  and  _118
REMARK   52  A    between atoms: _121  and  _123
REMARK   53  A    between atoms: _123  and  _124
REMARK   54  A    between atoms: _123  and  _126
REMARK   55  A    between atoms: _126  and  _127
REMARK   56  A    between atoms: _127  and  _128
REMARK   57  A    between atoms: _128  and  _129
REMARK   58  A    between atoms: _138  and  _140
REMARK   59  A    between atoms: _140  and  _141
REMARK   60  A    between atoms: _140  and  _143
REMARK   61  A    between atoms: _143  and  _144
REMARK   62  A    between atoms: _147  and  _149
REMARK   63  A    between atoms: _149  and  _150
REMARK   64  A    between atoms: _149  and  _152
REMARK   65  A    between atoms: _152  and  _153
REMARK   66  A    between atoms: _159  and  _161
REMARK   67  A    between atoms: _161  and  _162
REMARK   68  A    between atoms: _161  and  _164
REMARK   69  A    between atoms: _164  and  _165
REMARK   70  A    between atoms: _165  and  _166
REMARK   71  A    between atoms: _171  and  _173
REMARK   72  A    between atoms: _173  and  _174
REMARK   73  A    between atoms: _176  and  _178
REMARK   74  A    between atoms: _178  and  _179
REMARK   75  A    between atoms: _178  and  _181
REMARK   76  A    between atoms: _183  and  _185
REMARK   77  A    between atoms: _185  and  _186
REMARK   78  A    between atoms: _185  and  _188
REMARK   79  A    between atoms: _188  and  _189
REMARK   80  A    between atoms: _189  and  _190
REMARK   81  A    between atoms: _195  and  _197
REMARK   82  A    between atoms: _197  and  _198
REMARK   83  A    between atoms: _197  and  _200
REMARK   84  A    between atoms: _200  and  _201
REMARK   85  A    between atoms: _207  and  _209
REMARK   86  A    between atoms: _209  and  _210
REMARK   87  A    between atoms: _209  and  _212
REMARK   88  A    between atoms: _212  and  _213
REMARK   89  A    between atoms: _213  and  _214
REMARK   90  A    between atoms: _214  and  _215
REMARK   91  A    between atoms: _224  and  _226
REMARK   92  A    between atoms: _226  and  _227
REMARK   93  A    between atoms: _226  and  _229
REMARK   94  A    between atoms: _229  and  _230
REMARK   95  A    between atoms: _232  and  _234
REMARK   96  A    between atoms: _234  and  _235
REMARK   97  A    between atoms: _234  and  _237
REMARK   98  A    between atoms: _240  and  _242
REMARK   99  A    between atoms: _242  and  _243
REMARK  100  A    between atoms: _242  and  _245
REMARK  101  A    between atoms: _245  and  _246
REMARK  102  A    between atoms: _246  and  _247
REMARK  103  A    between atoms: _250  and  _252
REMARK  104  A    between atoms: _252  and  _253
REMARK  105  A    between atoms: _256  and  _258
REMARK  106  A    between atoms: _258  and  _259
REMARK  107  A    between atoms: _258  and  _261
REMARK  108  A    between atoms: _264  and  _266
REMARK  109  A    between atoms: _266  and  _267
REMARK  110  A    between atoms: _266  and  _269
REMARK  111  A    between atoms: _269  and  _270
REMARK  112  A    between atoms: _270  and  _271
REMARK  113  A    between atoms: _274  and  _276
REMARK  114  A    between atoms: _276  and  _277
REMARK  115  A    between atoms: _276  and  _279
REMARK  116  A    between atoms: _279  and  _280
REMARK  117  A    between atoms: _283  and  _285
REMARK  118  A    between atoms: _285  and  _286
REMARK  119  A    between atoms: _285  and  _288
REMARK  120  A    between atoms: _291  and  _293
REMARK  121  A    between atoms: _293  and  _294
REMARK  122  A    between atoms: _293  and  _296
REMARK  123  A    between atoms: _296  and  _297
REMARK  124  A    between atoms: _302  and  _304
REMARK  125  A    between atoms: _304  and  _305
REMARK  126  A    between atoms: _304  and  _307
REMARK  127  A    between atoms: _307  and  _308
REMARK  128  A    between atoms: _308  and  _309
REMARK  129  A    between atoms: _312  and  _314
REMARK  130  A    between atoms: _314  and  _315
REMARK  131  A    between atoms: _314  and  _317
REMARK  132  A    between atoms: _317  and  _318
REMARK  133  A    between atoms: _321  and  _323
REMARK  134  A    between atoms: _323  and  _324
REMARK  135  A    between atoms: _323  and  _326
REMARK  136  A    between atoms: _326  and  _327
REMARK  137  A    between atoms: _330  and  _332
REMARK  138  A    between atoms: _332  and  _333
REMARK  139  A    between atoms: _332  and  _335
REMARK  140  A    between atoms: _335  and  _336
REMARK  141  A    between atoms: _341  and  _342
REMARK  142  A    between atoms: _344  and  _346
REMARK  143  A    between atoms: _346  and  _347
REMARK  144  A    between atoms: _346  and  _349
REMARK  145  A    between atoms: _349  and  _350
REMARK  146  A    between atoms: _353  and  _355
REMARK  147  A    between atoms: _355  and  _356
REMARK  148  A    between atoms: _355  and  _358
REMARK  149  A    between atoms: _358  and  _359
REMARK  150  A    between atoms: _359  and  _360
REMARK  151  A    between atoms: _362  and  _364
REMARK  152  A    between atoms: _364  and  _365
REMARK  153  A    between atoms: _364  and  _367
REMARK  154  A    between atoms: _367  and  _368
REMARK  155  A    between atoms: _371  and  _373
REMARK  156  A    between atoms: _373  and  _374
REMARK  157  A    between atoms: _377  and  _379
REMARK  158  A    between atoms: _379  and  _380
REMARK  159  A    between atoms: _379  and  _382
REMARK  160  A    between atoms: _382  and  _383
REMARK  161  A    between atoms: _385  and  _387
REMARK  162  A    between atoms: _387  and  _388
REMARK  163  A    between atoms: _387  and  _390
REMARK  164  A    between atoms: _390  and  _391
REMARK  165  A    between atoms: _394  and  _396
REMARK  166  A    between atoms: _396  and  _397
REMARK  167  A    between atoms: _396  and  _399
REMARK  168  A    between atoms: _399  and  _400
REMARK  169  A    between atoms: _400  and  _401
REMARK  170  A    between atoms: _403  and  _405
REMARK  171  A    between atoms: _405  and  _406
REMARK  172  A    between atoms: _405  and  _408
REMARK  173  A    between atoms: _411  and  _413
REMARK  174  A    between atoms: _413  and  _414
REMARK  175  A    between atoms: _413  and  _416
REMARK  176  A    between atoms: _416  and  _417
REMARK  177  A    between atoms: _420  and  _422
REMARK  178  A    between atoms: _422  and  _423
REMARK  179  A    between atoms: _422  and  _425
REMARK  180  A    between atoms: _425  and  _426
REMARK  181  A    between atoms: _429  and  _431
REMARK  182  A    between atoms: _431  and  _432
REMARK  183  A    between atoms: _431  and  _434
REMARK  184  A    between atoms: _434  and  _435
REMARK  185  A    between atoms: _437  and  _439
REMARK  186  A    between atoms: _439  and  _440
REMARK  187  A    between atoms: _439  and  _442
REMARK  188  A    between atoms: _442  and  _443
REMARK  189  A    between atoms: _443  and  _444
REMARK  190  A    between atoms: _447  and  _449
REMARK  191  A    between atoms: _449  and  _450
REMARK  192  A    between atoms: _452  and  _454
REMARK  193  A    between atoms: _454  and  _455
REMARK  194  A    between atoms: _454  and  _457
REMARK  195  A    between atoms: _457  and  _458
REMARK  196  A    between atoms: _458  and  _459
REMARK  197  A    between atoms: _464  and  _466
REMARK  198  A    between atoms: _466  and  _467
REMARK  199  A    between atoms: _469  and  _471
REMARK  200  A    between atoms: _471  and  _472
REMARK  201  A    between atoms: _471  and  _474
REMARK  202  A    between atoms: _474  and  _475
REMARK  203  A    between atoms: _475  and  _476
REMARK  204  A    between atoms: _478  and  _480
REMARK  205  A    between atoms: _480  and  _481
REMARK  206  A    between atoms: _480  and  _483
REMARK  207  A    between atoms: _483  and  _484
REMARK  208  A    between atoms: _487  and  _489
REMARK  209  A    between atoms: _489  and  _490
REMARK  210  A    between atoms: _489  and  _492
REMARK  211  A    between atoms: _492  and  _493
REMARK  212  A    between atoms: _499  and  _501
REMARK  213  A    between atoms: _501  and  _502
REMARK  214  A    between atoms: _501  and  _504
REMARK  215  A    between atoms: _504  and  _505
REMARK  216  A    between atoms: _508  and  _510
REMARK  217  A    between atoms: _510  and  _511
REMARK  218  A    between atoms: _510  and  _513
REMARK  219  A    between atoms: _513  and  _514
REMARK  220  A    between atoms: _517  and  _519
REMARK  221  A    between atoms: _519  and  _520
REMARK  222  A    between atoms: _519  and  _522
REMARK  223  A    between atoms: _522  and  _523
REMARK  224  A    between atoms: _529  and  _531
REMARK  225  A    between atoms: _531  and  _532
REMARK  226  A    between atoms: _531  and  _534
REMARK  227  A    between atoms: _534  and  _535
REMARK  228  A    between atoms: _535  and  _536
REMARK  229  A    between atoms: _538  and  _540
REMARK  230  A    between atoms: _540  and  _541
REMARK  231  A    between atoms: _540  and  _543
REMARK  232  A    between atoms: _543  and  _544
REMARK  233  A    between atoms: _544  and  _545
REMARK  234  A    between atoms: _545  and  _546
REMARK  235  A    between atoms: _546  and  _547
REMARK  236  A    between atoms: _551  and  _553
REMARK  237  A    between atoms: _553  and  _554
REMARK  238  A    between atoms: _553  and  _556
REMARK  239  A    between atoms: _556  and  _557
REMARK  240  A    between atoms: _563  and  _565
REMARK  241  A    between atoms: _565  and  _566
REMARK  242  A    between atoms: _565  and  _568
REMARK  243  A    between atoms: _568  and  _569
REMARK  244  A    between atoms: _574  and  _576
REMARK  245  A    between atoms: _576  and  _577
REMARK  246  A    between atoms: _576  and  _579
REMARK  247  A    between atoms: _579  and  _580
REMARK  248  A    between atoms: _585  and  _586
REMARK                            x       y       z     vdW  Elec       q    Type
REMARK                         _______ _______ _______ _____ _____    ______ ____
ROOT
ATOM      1  CA  ILE A   1     -19.617  21.866   1.009  0.00  0.00    +0.133 C 
ENDROOT
BRANCH   1   2
ATOM      2  N   ILE A   1     -18.482  21.074   1.442  0.00  0.00    -0.239 NA
ATOM      3  H   ILE A   1     -17.976  20.514   0.726  0.00  0.00    +0.142 HD
ENDBRANCH   1   2
BRANCH   1   4
ATOM      4  C   ILE A   1     -20.826  20.939   0.908  0.00  0.00    +0.224 C 
ATOM      5  O   ILE A   1     -20.854  20.026   0.089  0.00  0.00    -0.287 OA
ENDBRANCH   1   4
BRANCH   1   6
ATOM      6  CB  ILE A   1     -19.338  22.568  -0.364  0.00  0.00    +0.023 C 
ATOM      7  CG2 ILE A   1     -20.621  23.186  -0.935  0.00  0.00    +0.002 C 
BRANCH   6   8
ATOM      8  CG1 ILE A   1     -18.244  23.633  -0.216  0.00  0.00    +0.002 C 
ATOM      9  CD1 ILE A   1     -17.525  23.961  -1.504  0.00  0.00    +0.000 C 
ENDBRANCH   6   8
ENDBRANCH   1   6
TORSDOF 4
REMARK  Name = ../refined-set-2016/4a4w/4a4w_pocket.pdb
REMARK  248 active torsions:
REMARK  status: ('A' for Active; 'I' for Inactive)
REMARK    1  A    between atoms: _1  and  _3
REMARK    2  A    between atoms: _3  and  _4
REMARK    3  A    between atoms: _3  and  _6
REMARK    4  A    between atoms: _6  and  _7
REMARK    5  A    between atoms: _14  and  _15
REMARK    6  A    between atoms: _20  and  _22
REMARK    7  A    between atoms: _22  and  _23
REMARK    8  A    between atoms: _22  and  _25
REMARK    9  A    between atoms: _25  and  _26
REMARK   10  A    between atoms: _29  and  _31
REMARK   11  A    between atoms: _31  and  _32
REMARK   12  A    between atoms: _31  and  _34
REMARK   13  A    between atoms: _34  and  _35
REMARK   14  A    between atoms: _38  and  _40
REMARK   15  A    between atoms: _40  and  _41
REMARK   16  A    between atoms: _40  and  _43
REMARK   17  A    between atoms: _43  and  _44
REMARK   18  A    between atoms: _46  and  _48
REMARK   19  A    between atoms: _48  and  _49
REMARK   20  A    between atoms: _48  and  _51
REMARK   21  A    between atoms: _51  and  _52
REMARK   22  A    between atoms: _55  and  _57
REMARK   23  A    between atoms: _57  and  _58
REMARK   24  A    between atoms: _57  and  _60
REMARK   25  A    between atoms: _60  and  _61
REMARK   26  A    between atoms: _61  and  _62
REMARK   27  A    between atoms: _64  and  _66
REMARK   28  A    between atoms: _66  and  _67
REMARK   29  A    between atoms: _69  and  _71
REMARK   30  A    between atoms: _71  and  _72
REMARK   31  A    between atoms: _71  and  _74
REMARK   32  A    between atoms: _74  and  _75
REMARK   33  A    between atoms: _75  and  _76
REMARK   34  A    between atoms: _79  and  _81
REMARK   35  A    between atoms: _81  and  _82
REMARK   36  A    between atoms: _81  and  _84
REMARK   37  A    between atoms: _84  and  _85
REMARK   38  A    between atoms: _88  and  _90
REMARK   39  A    between atoms: _90  and  _91
REMARK   40  A    between atoms: _90  and  _93
REMARK   41  A    between atoms: _93  and  _94
REMARK   42  A    between atoms: _94  and  _95
REMARK   43  A    between atoms: _98  and  _100
REMARK   44  A    between atoms: _100  and  _101
REMARK   45  A    between atoms: _100  and  _103
REMARK   46  A    between atoms: _106  and  _108
REMARK   47  A    between atoms: _108  and  _109
REMARK   48  A    between atoms: _112  and  _114
REMARK   49  A    between atoms: _114  and  _115
REMARK   50  A    between atoms: _114  and  _117
REMARK   51  A    between atoms: _117  and  _118
REMARK   52  A    between atoms: _121  and  _123
REMARK   53  A    between atoms: _123  and  _124
REMARK   54  A    between atoms: _123  and  _126
REMARK   55  A    between atoms: _126  and  _127
REMARK   56  A    between atoms: _127  and  _128
REMARK   57  A    between atoms: _128  and  _129
REMARK   58  A    between atoms: _138  and  _140
REMARK   59  A    between atoms: _140  and  _141
REMARK   60  A    between atoms: _140  and  _143
REMARK   61  A    between atoms: _143  and  _144
REMARK   62  A    between atoms: _147  and  _149
REMARK   63  A    between atoms: _149  and  _150
REMARK   64  A    between atoms: _149  and  _152
REMARK   65  A    between atoms: _152  and  _153
REMARK   66  A    between atoms: _159  and  _161
REMARK   67  A    between atoms: _161  and  _162
REMARK   68  A    between atoms: _161  and  _164
REMARK   69  A    between atoms: _164  and  _165
REMARK   70  A    between atoms: _165  and  _166
REMARK   71  A    between atoms: _171  and  _173
REMARK   72  A    between atoms: _173  and  _174
REMARK   73  A    between atoms: _176  and  _178
REMARK   74  A    between atoms: _178  and  _179
REMARK   75  A    between atoms: _178  and  _181
REMARK   76  A    between atoms: _183  and  _185
REMARK   77  A    between atoms: _185  and  _186
REMARK   78  A    between atoms: _185  and  _188
REMARK   79  A    between atoms: _188  and  _189
REMARK   80  A    between atoms: _189  and  _190
REMARK   81  A    between atoms: _195  and  _197
REMARK   82  A    between atoms: _197  and  _198
REMARK   83  A    between atoms: _197  and  _200
REMARK   84  A    between atoms: _200  and  _201
REMARK   85  A    between atoms: _207  and  _209
REMARK   86  A    between atoms: _209  and  _210
REMARK   87  A    between atoms: _209  and  _212
REMARK   88  A    between atoms: _212  and  _213
REMARK   89  A    between atoms: _213  and  _214
REMARK   90  A    between atoms: _214  and  _215
REMARK   91  A    between atoms: _224  and  _226
REMARK   92  A    between atoms: _226  and  _227
REMARK   93  A    between atoms: _226  and  _229
REMARK   94  A    between atoms: _229  and  _230
REMARK   95  A    between atoms: _232  and  _234
REMARK   96  A    between atoms: _234  and  _235
REMARK   97  A    between atoms: _234  and  _237
REMARK   98  A    between atoms: _240  and  _242
REMARK   99  A    between atoms: _242  and  _243
REMARK  100  A    between atoms: _242  and  _245
REMARK  101  A    between atoms: _245  and  _246
REMARK  102  A    between atoms: _246  and  _247
REMARK  103  A    between atoms: _250  and  _252
REMARK  104  A    between atoms: _252  and  _253
REMARK  105  A    between atoms: _256  and  _258
REMARK  106  A    between atoms: _258  and  _259
REMARK  107  A    between atoms: _258  and  _261
REMARK  108  A    between atoms: _264  and  _266
REMARK  109  A    between atoms: _266  and  _267
REMARK  110  A    between atoms: _266  and  _269
REMARK  111  A    between atoms: _269  and  _270
REMARK  112  A    between atoms: _270  and  _271
REMARK  113  A    between atoms: _274  and  _276
REMARK  114  A    between atoms: _276  and  _277
REMARK  115  A    between atoms: _276  and  _279
REMARK  116  A    between atoms: _279  and  _280
REMARK  117  A    between atoms: _283  and  _285
REMARK  118  A    between atoms: _285  and  _286
REMARK  119  A    between atoms: _285  and  _288
REMARK  120  A    between atoms: _291  and  _293
REMARK  121  A    between atoms: _293  and  _294
REMARK  122  A    between atoms: _293  and  _296
REMARK  123  A    between atoms: _296  and  _297
REMARK  124  A    between atoms: _302  and  _304
REMARK  125  A    between atoms: _304  and  _305
REMARK  126  A    between atoms: _304  and  _307
REMARK  127  A    between atoms: _307  and  _308
REMARK  128  A    between atoms: _308  and  _309
REMARK  129  A    between atoms: _312  and  _314
REMARK  130  A    between atoms: _314  and  _315
REMARK  131  A    between atoms: _314  and  _317
REMARK  132  A    between atoms: _317  and  _318
REMARK  133  A    between atoms: _321  and  _323
REMARK  134  A    between atoms: _323  and  _324
REMARK  135  A    between atoms: _323  and  _326
REMARK  136  A    between atoms: _326  and  _327
REMARK  137  A    between atoms: _330  and  _332
REMARK  138  A    between atoms: _332  and  _333
REMARK  139  A    between atoms: _332  and  _335
REMARK  140  A    between atoms: _335  and  _336
REMARK  141  A    between atoms: _341  and  _342
REMARK  142  A    between atoms: _344  and  _346
REMARK  143  A    between atoms: _346  and  _347
REMARK  144  A    between atoms: _346  and  _349
REMARK  145  A    between atoms: _349  and  _350
REMARK  146  A    between atoms: _353  and  _355
REMARK  147  A    between atoms: _355  and  _356
REMARK  148  A    between atoms: _355  and  _358
REMARK  149  A    between atoms: _358  and  _359
REMARK  150  A    between atoms: _359  and  _360
REMARK  151  A    between atoms: _362  and  _364
REMARK  152  A    between atoms: _364  and  _365
REMARK  153  A    between atoms: _364  and  _367
REMARK  154  A    between atoms: _367  and  _368
REMARK  155  A    between atoms: _371  and  _373
REMARK  156  A    between atoms: _373  and  _374
REMARK  157  A    between atoms: _377  and  _379
REMARK  158  A    between atoms: _379  and  _380
REMARK  159  A    between atoms: _379  and  _382
REMARK  160  A    between atoms: _382  and  _383
REMARK  161  A    between atoms: _385  and  _387
REMARK  162  A    between atoms: _387  and  _388
REMARK  163  A    between atoms: _387  and  _390
REMARK  164  A    between atoms: _390  and  _391
REMARK  165  A    between atoms: _394  and  _396
REMARK  166  A    between atoms: _396  and  _397
REMARK  167  A    between atoms: _396  and  _399
REMARK  168  A    between atoms: _399  and  _400
REMARK  169  A    between atoms: _400  and  _401
REMARK  170  A    between atoms: _403  and  _405
REMARK  171  A    between atoms: _405  and  _406
REMARK  172  A    between atoms: _405  and  _408
REMARK  173  A    between atoms: _411  and  _413
REMARK  174  A    between atoms: _413  and  _414
REMARK  175  A    between atoms: _413  and  _416
REMARK  176  A    between atoms: _416  and  _417
REMARK  177  A    between atoms: _420  and  _422
REMARK  178  A    between atoms: _422  and  _423
REMARK  179  A    between atoms: _422  and  _425
REMARK  180  A    between atoms: _425  and  _426
REMARK  181  A    between atoms: _429  and  _431
REMARK  182  A    between atoms: _431  and  _432
REMARK  183  A    between atoms: _431  and  _434
REMARK  184  A    between atoms: _434  and  _435
REMARK  185  A    between atoms: _437  and  _439
REMARK  186  A    between atoms: _439  and  _440
REMARK  187  A    between atoms: _439  and  _442
REMARK  188  A    between atoms: _442  and  _443
REMARK  189  A    between atoms: _443  and  _444
REMARK  190  A    between atoms: _447  and  _449
REMARK  191  A    between atoms: _449  and  _450
REMARK  192  A    between atoms: _452  and  _454
REMARK  193  A    between atoms: _454  and  _455
REMARK  194  A    between atoms: _454  and  _457
REMARK  195  A    between atoms: _457  and  _458
REMARK  196  A    between atoms: _458  and  _459
REMARK  197  A    between atoms: _464  and  _466
REMARK  198  A    between atoms: _466  and  _467
REMARK  199  A    between atoms: _469  and  _471
REMARK  200  A    between atoms: _471  and  _472
REMARK  201  A    between atoms: _471  and  _474
REMARK  202  A    between atoms: _474  and  _475
REMARK  203  A    between atoms: _475  and  _476
REMARK  204  A    between atoms: _478  and  _480
REMARK  205  A    between atoms: _480  and  _481
REMARK  206  A    between atoms: _480  and  _483
REMARK  207  A    between atoms: _483  and  _484
REMARK  208  A    between atoms: _487  and  _489
REMARK  209  A    between atoms: _489  and  _490
REMARK  210  A    between atoms: _489  and  _492
REMARK  211  A    between atoms: _492  and  _493
REMARK  212  A    between atoms: _499  and  _501
REMARK  213  A    between atoms: _501  and  _502
REMARK  214  A    between atoms: _501  and  _504
REMARK  215  A    between atoms: _504  and  _505
REMARK  216  A    between atoms: _508  and  _510
REMARK  217  A    between atoms: _510  and  _511
REMARK  218  A    between atoms: _510  and  _513
REMARK  219  A    between atoms: _513  and  _514
REMARK  220  A    between atoms: _517  and  _519
REMARK  221  A    between atoms: _519  and  _520
REMARK  222  A    between atoms: _519  and  _522
REMARK  223  A    between atoms: _522  and  _523
REMARK  224  A    between atoms: _529  and  _531
REMARK  225  A    between atoms: _531  and  _532
REMARK  226  A    between atoms: _531  and  _534
REMARK  227  A    between atoms: _534  and  _535
REMARK  228  A    between atoms: _535  and  _536
REMARK  229  A    between atoms: _538  and  _540
REMARK  230  A    between atoms: _540  and  _541
REMARK  231  A    between atoms: _540  and  _543
REMARK  232  A    between atoms: _543  and  _544
REMARK  233  A    between atoms: _544  and  _545
REMARK  234  A    between atoms: _545  and  _546
REMARK  235  A    between atoms: _546  and  _547
REMARK  236  A    between atoms: _551  and  _553
REMARK  237  A    between atoms: _553  and  _554
REMARK  238  A    between atoms: _553  and  _556
REMARK  239  A    between atoms: _556  and  _557
REMARK  240  A    between atoms: _563  and  _565
REMARK  241  A    between atoms: _565  and  _566
REMARK  242  A    between atoms: _565  and  _568
REMARK  243  A    between atoms: _568  and  _569
REMARK  244  A    between atoms: _574  and  _576
REMARK  245  A    between atoms: _576  and  _577
REMARK  246  A    between atoms: _576  and  _579
REMARK  247  A    between atoms: _579  and  _580
REMARK  248  A    between atoms: _585  and  _586
REMARK                            x       y       z     vdW  Elec       q    Type
REMARK                         _______ _______ _______ _____ _____    ______ ____
ROOT
ATOM      1  CA  LEU A   2     -20.750  26.771   0.170  0.00  0.00    +0.149 C 
ENDROOT
BRANCH   1   4
ATOM      2  C   SER A   1     -20.314  26.217   2.487  0.00  0.00    +0.241 C 
ATOM      3  O   SER A   1     -19.130  26.525   2.370  0.00  0.00    -0.274 OA
ATOM      4  N   LEU A   2     -21.172  26.262   1.470  0.00  0.00    -0.297 N 
ATOM      5  H   LEU A   2     -22.149  25.932   1.603  0.00  0.00    +0.150 HD
BRANCH   2   6
ATOM      6  CA  SER A   1     -20.868  25.802   3.850  0.00  0.00    +0.174 C 
BRANCH   6   7
ATOM      7  N   SER A   1     -22.161  26.433   4.085  0.00  0.00    -0.236 NA
ATOM      8  H   SER A   1     -22.979  25.838   4.326  0.00  0.00    +0.142 HD
ENDBRANCH   6   7
BRANCH   6   9
ATOM      9  CB  SER A   1     -20.957  24.280   3.978  0.00  0.00    +0.163 C 
BRANCH   9  10
ATOM     10  OG  SER A   1     -21.876  23.732   3.056  0.00  0.00    -0.380 OA
ATOM     11  H   SER A   1     -22.775  24.113   3.222  0.00  0.00    +0.211 HD
ENDBRANCH   9  10
ENDBRANCH   6   9
ENDBRANCH   2   6
ENDBRANCH   1   4
BRANCH   1  12
ATOM     12  C   LEU A   2     -20.188  28.180   0.297  0.00  0.00    +0.241 C 
ATOM     13  N   MET A   3     -20.966  29.079   0.903  0.00  0.00    -0.298 N 
ATOM     14  H   MET A   3     -21.906  28.783   1.237  0.00  0.00    +0.150 HD
ATOM     15  O   LEU A   2     -19.062  28.436  -0.130  0.00  0.00    -0.273 OA
BRANCH  13  16
ATOM     16  CA  MET A   3     -20.546  30.469   1.116  0.00  0.00    +0.138 C 
BRANCH  16  17
ATOM     17  C   MET A   3     -19.238  30.552   1.912  0.00  0.00    +0.227 C 
ATOM     18  O   MET A   3     -18.396  31.405   1.641  0.00  0.00    -0.286 OA
ENDBRANCH  16  17
BRANCH  16  19
ATOM     19  CB  MET A   3     -21.648  31.290   1.800  0.00  0.00    +0.039 C 
BRANCH  19  20
ATOM     20  CG  MET A   3     -23.029  31.229   1.127  0.00  0.00    +0.060 C 
BRANCH  20  21
ATOM     21  SD  MET A   3     -23.130  31.799  -0.596  0.00  0.00    -0.139 S 
ATOM     22  CE  MET A   3     -24.734  31.141  -1.073  0.00  0.00    +0.069 C 
ENDBRANCH  20  21
ENDBRANCH  19  20
ENDBRANCH  16  19
ENDBRANCH  13  16
ENDBRANCH   1  12
BRANCH   1  23
ATOM     23  CB  LEU A   2     -21.886  26.738  -0.852  0.00  0.00    +0.029 C 
BRANCH  23  24
ATOM     24  CG  LEU A   2     -21.596  27.402  -2.201  0.00  0.00    +0.002 C 
ATOM     25  CD2 LEU A   2     -22.868  27.467  -2.991  0.00  0.00    +0.000 C 
ATOM     26  CD1 LEU A   2     -20.505  26.677  -2.996  0.00  0.00    +0.000 C 
ENDBRANCH  23  24
ENDBRANCH   1  23
TORSDOF 13
REMARK  Name = ../refined-set-2016/4a4w/4a4w_pocket.pdb
REMARK  248 active torsions:
REMARK  status: ('A' for Active; 'I' for Inactive)
REMARK    1  A    between atoms: _1  and  _3
REMARK    2  A    between atoms: _3  and  _4
REMARK    3  A    between atoms: _3  and  _6
REMARK    4  A    between atoms: _6  and  _7
REMARK    5  A    between atoms: _14  and  _15
REMARK    6  A    between atoms: _20  and  _22
REMARK    7  A    between atoms: _22  and  _23
REMARK    8  A    between atoms: _22  and  _25
REMARK    9  A    between atoms: _25  and  _26
REMARK   10  A    between atoms: _29  and  _31
REMARK   11  A    between atoms: _31  and  _32
REMARK   12  A    between atoms: _31  and  _34
REMARK   13  A    between atoms: _34  and  _35
REMARK   14  A    between atoms: _38  and  _40
REMARK   15  A    between atoms: _40  and  _41
REMARK   16  A    between atoms: _40  and  _43
REMARK   17  A    between atoms: _43  and  _44
REMARK   18  A    between atoms: _46  and  _48
REMARK   19  A    between atoms: _48  and  _49
REMARK   20  A    between atoms: _48  and  _51
REMARK   21  A    between atoms: _51  and  _52
REMARK   22  A    between atoms: _55  and  _57
REMARK   23  A    between atoms: _57  and  _58
REMARK   24  A    between atoms: _57  and  _60
REMARK   25  A    between atoms: _60  and  _61
REMARK   26  A    between atoms: _61  and  _62
REMARK   27  A    between atoms: _64  and  _66
REMARK   28  A    between atoms: _66  and  _67
REMARK   29  A    between atoms: _69  and  _71
REMARK   30  A    between atoms: _71  and  _72
REMARK   31  A    between atoms: _71  and  _74
REMARK   32  A    between atoms: _74  and  _75
REMARK   33  A    between atoms: _75  and  _76
REMARK   34  A    between atoms: _79  and  _81
REMARK   35  A    between atoms: _81  and  _82
REMARK   36  A    between atoms: _81  and  _84
REMARK   37  A    between atoms: _84  and  _85
REMARK   38  A    between atoms: _88  and  _90
REMARK   39  A    between atoms: _90  and  _91
REMARK   40  A    between atoms: _90  and  _93
REMARK   41  A    between atoms: _93  and  _94
REMARK   42  A    between atoms: _94  and  _95
REMARK   43  A    between atoms: _98  and  _100
REMARK   44  A    between atoms: _100  and  _101
REMARK   45  A    between atoms: _100  and  _103
REMARK   46  A    between atoms: _106  and  _108
REMARK   47  A    between atoms: _108  and  _109
REMARK   48  A    between atoms: _112  and  _114
REMARK   49  A    between atoms: _114  and  _115
REMARK   50  A    between atoms: _114  and  _117
REMARK   51  A    between atoms: _117  and  _118
REMARK   52  A    between atoms: _121  and  _123
REMARK   53  A    between atoms: _123  and  _124
REMARK   54  A    between atoms: _123  and  _126
REMARK   55  A    between atoms: _126  and  _127
REMARK   56  A    between atoms: _127  and  _128
REMARK   57  A    between atoms: _128  and  _129
REMARK   58  A    between atoms: _138  and  _140
REMARK   59  A    between atoms: _140  and  _141
REMARK   60  A    between atoms: _140  and  _143
REMARK   61  A    between atoms: _143  and  _144
REMARK   62  A    between atoms: _147  and  _149
REMARK   63  A    between atoms: _149  and  _150
REMARK   64  A    between atoms: _149  and  _152
REMARK   65  A    between atoms: _152  and  _153
REMARK   66  A    between atoms: _159  and  _161
REMARK   67  A    between atoms: _161  and  _162
REMARK   68  A    between atoms: _161  and  _164
REMARK   69  A    between atoms: _164  and  _165
REMARK   70  A    between atoms: _165  and  _166
REMARK   71  A    between atoms: _171  and  _173
REMARK   72  A    between atoms: _173  and  _174
REMARK   73  A    between atoms: _176  and  _178
REMARK   74  A    between atoms: _178  and  _179
REMARK   75  A    between atoms: _178  and  _181
REMARK   76  A    between atoms: _183  and  _185
REMARK   77  A    between atoms: _185  and  _186
REMARK   78  A    between atoms: _185  and  _188
REMARK   79  A    between atoms: _188  and  _189
REMARK   80  A    between atoms: _189  and  _190
REMARK   81  A    between atoms: _195  and  _197
REMARK   82  A    between atoms: _197  and  _198
REMARK   83  A    between atoms: _197  and  _200
REMARK   84  A    between atoms: _200  and  _201
REMARK   85  A    between atoms: _207  and  _209
REMARK   86  A    between atoms: _209  and  _210
REMARK   87  A    between atoms: _209  and  _212
REMARK   88  A    between atoms: _212  and  _213
REMARK   89  A    between atoms: _213  and  _214
REMARK   90  A    between atoms: _214  and  _215
REMARK   91  A    between atoms: _224  and  _226
REMARK   92  A    between atoms: _226  and  _227
REMARK   93  A    between atoms: _226  and  _229
REMARK   94  A    between atoms: _229  and  _230
REMARK   95  A    between atoms: _232  and  _234
REMARK   96  A    between atoms: _234  and  _235
REMARK   97  A    between atoms: _234  and  _237
REMARK   98  A    between atoms: _240  and  _242
REMARK   99  A    between atoms: _242  and  _243
REMARK  100  A    between atoms: _242  and  _245
REMARK  101  A    between atoms: _245  and  _246
REMARK  102  A    between atoms: _246  and  _247
REMARK  103  A    between atoms: _250  and  _252
REMARK  104  A    between atoms: _252  and  _253
REMARK  105  A    between atoms: _256  and  _258
REMARK  106  A    between atoms: _258  and  _259
REMARK  107  A    between atoms: _258  and  _261
REMARK  108  A    between atoms: _264  and  _266
REMARK  109  A    between atoms: _266  and  _267
REMARK  110  A    between atoms: _266  and  _269
REMARK  111  A    between atoms: _269  and  _270
REMARK  112  A    between atoms: _270  and  _271
REMARK  113  A    between atoms: _274  and  _276
REMARK  114  A    between atoms: _276  and  _277
REMARK  115  A    between atoms: _276  and  _279
REMARK  116  A    between atoms: _279  and  _280
REMARK  117  A    between atoms: _283  and  _285
REMARK  118  A    between atoms: _285  and  _286
REMARK  119  A    between atoms: _285  and  _288
REMARK  120  A    between atoms: _291  and  _293
REMARK  121  A    between atoms: _293  and  _294
REMARK  122  A    between atoms: _293  and  _296
REMARK  123  A    between atoms: _296  and  _297
REMARK  124  A    between atoms: _302  and  _304
REMARK  125  A    between atoms: _304  and  _305
REMARK  126  A    between atoms: _304  and  _307
REMARK  127  A    between atoms: _307  and  _308
REMARK  128  A    between atoms: _308  and  _309
REMARK  129  A    between atoms: _312  and  _314
REMARK  130  A    between atoms: _314  and  _315
REMARK  131  A    between atoms: _314  and  _317
REMARK  132  A    between atoms: _317  and  _318
REMARK  133  A    between atoms: _321  and  _323
REMARK  134  A    between atoms: _323  and  _324
REMARK  135  A    between atoms: _323  and  _326
REMARK  136  A    between atoms: _326  and  _327
REMARK  137  A    between atoms: _330  and  _332
REMARK  138  A    between atoms: _332  and  _333
REMARK  139  A    between atoms: _332  and  _335
REMARK  140  A    between atoms: _335  and  _336
REMARK  141  A    between atoms: _341  and  _342
REMARK  142  A    between atoms: _344  and  _346
REMARK  143  A    between atoms: _346  and  _347
REMARK  144  A    between atoms: _346  and  _349
REMARK  145  A    between atoms: _349  and  _350
REMARK  146  A    between atoms: _353  and  _355
REMARK  147  A    between atoms: _355  and  _356
REMARK  148  A    between atoms: _355  and  _358
REMARK  149  A    between atoms: _358  and  _359
REMARK  150  A    between atoms: _359  and  _360
REMARK  151  A    between atoms: _362  and  _364
REMARK  152  A    between atoms: _364  and  _365
REMARK  153  A    between atoms: _364  and  _367
REMARK  154  A    between atoms: _367  and  _368
REMARK  155  A    between atoms: _371  and  _373
REMARK  156  A    between atoms: _373  and  _374
REMARK  157  A    between atoms: _377  and  _379
REMARK  158  A    between atoms: _379  and  _380
REMARK  159  A    between atoms: _379  and  _382
REMARK  160  A    between atoms: _382  and  _383
REMARK  161  A    between atoms: _385  and  _387
REMARK  162  A    between atoms: _387  and  _388
REMARK  163  A    between atoms: _387  and  _390
REMARK  164  A    between atoms: _390  and  _391
REMARK  165  A    between atoms: _394  and  _396
REMARK  166  A    between atoms: _396  and  _397
REMARK  167  A    between atoms: _396  and  _399
REMARK  168  A    between atoms: _399  and  _400
REMARK  169  A    between atoms: _400  and  _401
REMARK  170  A    between atoms: _403  and  _405
REMARK  171  A    between atoms: _405  and  _406
REMARK  172  A    between atoms: _405  and  _408
REMARK  173  A    between atoms: _411  and  _413
REMARK  174  A    between atoms: _413  and  _414
REMARK  175  A    between atoms: _413  and  _416
REMARK  176  A    between atoms: _416  and  _417
REMARK  177  A    between atoms: _420  and  _422
REMARK  178  A    between atoms: _422  and  _423
REMARK  179  A    between atoms: _422  and  _425
REMARK  180  A    between atoms: _425  and  _426
REMARK  181  A    between atoms: _429  and  _431
REMARK  182  A    between atoms: _431  and  _432
REMARK  183  A    between atoms: _431  and  _434
REMARK  184  A    between atoms: _434  and  _435
REMARK  185  A    between atoms: _437  and  _439
REMARK  186  A    between atoms: _439  and  _440
REMARK  187  A    between atoms: _439  and  _442
REMARK  188  A    between atoms: _442  and  _443
REMARK  189  A    between atoms: _443  and  _444
REMARK  190  A    between atoms: _447  and  _449
REMARK  191  A    between atoms: _449  and  _450
REMARK  192  A    between atoms: _452  and  _454
REMARK  193  A    between atoms: _454  and  _455
REMARK  194  A    between atoms: _454  and  _457
REMARK  195  A    between atoms: _457  and  _458
REMARK  196  A    between atoms: _458  and  _459
REMARK  197  A    between atoms: _464  and  _466
REMARK  198  A    between atoms: _466  and  _467
REMARK  199  A    between atoms: _469  and  _471
REMARK  200  A    between atoms: _471  and  _472
REMARK  201  A    between atoms: _471  and  _474
REMARK  202  A    between atoms: _474  and  _475
REMARK  203  A    between atoms: _475  and  _476
REMARK  204  A    between atoms: _478  and  _480
REMARK  205  A    between atoms: _480  and  _481
REMARK  206  A    between atoms: _480  and  _483
REMARK  207  A    between atoms: _483  and  _484
REMARK  208  A    between atoms: _487  and  _489
REMARK  209  A    between atoms: _489  and  _490
REMARK  210  A    between atoms: _489  and  _492
REMARK  211  A    between atoms: _492  and  _493
REMARK  212  A    between atoms: _499  and  _501
REMARK  213  A    between atoms: _501  and  _502
REMARK  214  A    between atoms: _501  and  _504
REMARK  215  A    between atoms: _504  and  _505
REMARK  216  A    between atoms: _508  and  _510
REMARK  217  A    between atoms: _510  and  _511
REMARK  218  A    between atoms: _510  and  _513
REMARK  219  A    between atoms: _513  and  _514
REMARK  220  A    between atoms: _517  and  _519
REMARK  221  A    between atoms: _519  and  _520
REMARK  222  A    between atoms: _519  and  _522
REMARK  223  A    between atoms: _522  and  _523
REMARK  224  A    between atoms: _529  and  _531
REMARK  225  A    between atoms: _531  and  _532
REMARK  226  A    between atoms: _531  and  _534
REMARK  227  A    between atoms: _534  and  _535
REMARK  228  A    between atoms: _535  and  _536
REMARK  229  A    between atoms: _538  and  _540
REMARK  230  A    between atoms: _540  and  _541
REMARK  231  A    between atoms: _540  and  _543
REMARK  232  A    between atoms: _543  and  _544
REMARK  233  A    between atoms: _544  and  _545
REMARK  234  A    between atoms: _545  and  _546
REMARK  235  A    between atoms: _546  and  _547
REMARK  236  A    between atoms: _551  and  _553
REMARK  237  A    between atoms: _553  and  _554
REMARK  238  A    between atoms: _553  and  _556
REMARK  239  A    between atoms: _556  and  _557
REMARK  240  A    between atoms: _563  and  _565
REMARK  241  A    between atoms: _565  and  _566
REMARK  242  A    between atoms: _565  and  _568
REMARK  243  A    between atoms: _568  and  _569
REMARK  244  A    between atoms: _574  and  _576
REMARK  245  A    between atoms: _576  and  _577
REMARK  246  A    between atoms: _576  and  _579
REMARK  247  A    between atoms: _579  and  _580
REMARK  248  A    between atoms: _585  and  _586
REMARK                            x       y       z     vdW  Elec       q    Type
REMARK                         _______ _______ _______ _____ _____    ______ ____
ROOT
ATOM      1  CA  GLU A   2     -14.738  30.391  -1.274  0.00  0.00    +0.149 C 
ENDROOT
BRANCH   1   4
ATOM      2  C   GLY A   1     -15.006  28.450   0.231  0.00  0.00    +0.240 C 
ATOM      3  O   GLY A   1     -13.794  28.228   0.278  0.00  0.00    -0.274 OA
ATOM      4  N   GLU A   2     -15.542  29.459  -0.460  0.00  0.00    -0.297 N 
ATOM      5  H   GLU A   2     -16.573  29.594  -0.423  0.00  0.00    +0.150 HD
BRANCH   2   6
ATOM      6  CA  GLY A   1     -15.972  27.554   0.985  0.00  0.00    +0.169 C 
BRANCH   6   7
ATOM      7  N   GLY A   1     -16.974  28.237   1.801  0.00  0.00    -0.236 NA
ATOM      8  H   GLY A   1     -17.977  28.136   1.545  0.00  0.00    +0.142 HD
ENDBRANCH   6   7
ENDBRANCH   2   6
ENDBRANCH   1   4
BRANCH   1   9
ATOM      9  C   GLU A   2     -13.602  31.048  -0.493  0.00  0.00    +0.241 C 
ATOM     10  N   ASP A   3     -13.726  31.049   0.833  0.00  0.00    -0.298 N 
ATOM     11  H   ASP A   3     -14.603  30.683   1.255  0.00  0.00    +0.150 HD
ATOM     12  O   GLU A   2     -12.638  31.544  -1.085  0.00  0.00    -0.273 OA
BRANCH  10  13
ATOM     13  CA  ASP A   3     -12.677  31.544   1.713  0.00  0.00    +0.148 C 
BRANCH  13  14
ATOM     14  C   ASP A   3     -11.426  30.657   1.669  0.00  0.00    +0.227 C 
ATOM     15  O   ASP A   3     -10.313  31.146   1.876  0.00  0.00    -0.286 OA
ENDBRANCH  13  14
BRANCH  13  16
ATOM     16  CB  ASP A   3     -13.199  31.657   3.146  0.00  0.00    +0.142 C 
BRANCH  16  17
ATOM     17  CG  ASP A   3     -12.297  32.494   4.030  0.00  0.00    +0.367 C 
ATOM     18  OD2 ASP A   3     -11.960  32.033   5.141  0.00  0.00    -0.246 OA
ATOM     19  OD1 ASP A   3     -11.927  33.615   3.617  0.00  0.00    -0.246 OA
ENDBRANCH  16  17
ENDBRANCH  13  16
ENDBRANCH  10  13
ENDBRANCH   1   9
BRANCH   1  20
ATOM     20  CB  GLU A   2     -15.614  31.479  -1.910  0.00  0.00    +0.041 C 
BRANCH  20  21
ATOM     21  CG  GLU A   2     -16.636  30.963  -2.918  0.00  0.00    +0.116 C 
BRANCH  21  22
ATOM     22  CD  GLU A   2     -17.888  30.411  -2.256  0.00  0.00    +0.365 C 
ATOM     23  OE2 GLU A   2     -18.201  30.845  -1.129  0.00  0.00    -0.246 OA
ATOM     24  OE1 GLU A   2     -18.560  29.547  -2.861  0.00  0.00    -0.246 OA
ENDBRANCH  21  22
ENDBRANCH  20  21
ENDBRANCH   1  20
TORSDOF 11
REMARK  Name = ../refined-set-2016/4a4w/4a4w_pocket.pdb
REMARK  248 active torsions:
REMARK  status: ('A' for Active; 'I' for Inactive)
REMARK    1  A    between atoms: _1  and  _3
REMARK    2  A    between atoms: _3  and  _4
REMARK    3  A    between atoms: _3  and  _6
REMARK    4  A    between atoms: _6  and  _7
REMARK    5  A    between atoms: _14  and  _15
REMARK    6  A    between atoms: _20  and  _22
REMARK    7  A    between atoms: _22  and  _23
REMARK    8  A    between atoms: _22  and  _25
REMARK    9  A    between atoms: _25  and  _26
REMARK   10  A    between atoms: _29  and  _31
REMARK   11  A    between atoms: _31  and  _32
REMARK   12  A    between atoms: _31  and  _34
REMARK   13  A    between atoms: _34  and  _35
REMARK   14  A    between atoms: _38  and  _40
REMARK   15  A    between atoms: _40  and  _41
REMARK   16  A    between atoms: _40  and  _43
REMARK   17  A    between atoms: _43  and  _44
REMARK   18  A    between atoms: _46  and  _48
REMARK   19  A    between atoms: _48  and  _49
REMARK   20  A    between atoms: _48  and  _51
REMARK   21  A    between atoms: _51  and  _52
REMARK   22  A    between atoms: _55  and  _57
REMARK   23  A    between atoms: _57  and  _58
REMARK   24  A    between atoms: _57  and  _60
REMARK   25  A    between atoms: _60  and  _61
REMARK   26  A    between atoms: _61  and  _62
REMARK   27  A    between atoms: _64  and  _66
REMARK   28  A    between atoms: _66  and  _67
REMARK   29  A    between atoms: _69  and  _71
REMARK   30  A    between atoms: _71  and  _72
REMARK   31  A    between atoms: _71  and  _74
REMARK   32  A    between atoms: _74  and  _75
REMARK   33  A    between atoms: _75  and  _76
REMARK   34  A    between atoms: _79  and  _81
REMARK   35  A    between atoms: _81  and  _82
REMARK   36  A    between atoms: _81  and  _84
REMARK   37  A    between atoms: _84  and  _85
REMARK   38  A    between atoms: _88  and  _90
REMARK   39  A    between atoms: _90  and  _91
REMARK   40  A    between atoms: _90  and  _93
REMARK   41  A    between atoms: _93  and  _94
REMARK   42  A    between atoms: _94  and  _95
REMARK   43  A    between atoms: _98  and  _100
REMARK   44  A    between atoms: _100  and  _101
REMARK   45  A    between atoms: _100  and  _103
REMARK   46  A    between atoms: _106  and  _108
REMARK   47  A    between atoms: _108  and  _109
REMARK   48  A    between atoms: _112  and  _114
REMARK   49  A    between atoms: _114  and  _115
REMARK   50  A    between atoms: _114  and  _117
REMARK   51  A    between atoms: _117  and  _118
REMARK   52  A    between atoms: _121  and  _123
REMARK   53  A    between atoms: _123  and  _124
REMARK   54  A    between atoms: _123  and  _126
REMARK   55  A    between atoms: _126  and  _127
REMARK   56  A    between atoms: _127  and  _128
REMARK   57  A    between atoms: _128  and  _129
REMARK   58  A    between atoms: _138  and  _140
REMARK   59  A    between atoms: _140  and  _141
REMARK   60  A    between atoms: _140  and  _143
REMARK   61  A    between atoms: _143  and  _144
REMARK   62  A    between atoms: _147  and  _149
REMARK   63  A    between atoms: _149  and  _150
REMARK   64  A    between atoms: _149  and  _152
REMARK   65  A    between atoms: _152  and  _153
REMARK   66  A    between atoms: _159  and  _161
REMARK   67  A    between atoms: _161  and  _162
REMARK   68  A    between atoms: _161  and  _164
REMARK   69  A    between atoms: _164  and  _165
REMARK   70  A    between atoms: _165  and  _166
REMARK   71  A    between atoms: _171  and  _173
REMARK   72  A    between atoms: _173  and  _174
REMARK   73  A    between atoms: _176  and  _178
REMARK   74  A    between atoms: _178  and  _179
REMARK   75  A    between atoms: _178  and  _181
REMARK   76  A    between atoms: _183  and  _185
REMARK   77  A    between atoms: _185  and  _186
REMARK   78  A    between atoms: _185  and  _188
REMARK   79  A    between atoms: _188  and  _189
REMARK   80  A    between atoms: _189  and  _190
REMARK   81  A    between atoms: _195  and  _197
REMARK   82  A    between atoms: _197  and  _198
REMARK   83  A    between atoms: _197  and  _200
REMARK   84  A    between atoms: _200  and  _201
REMARK   85  A    between atoms: _207  and  _209
REMARK   86  A    between atoms: _209  and  _210
REMARK   87  A    between atoms: _209  and  _212
REMARK   88  A    between atoms: _212  and  _213
REMARK   89  A    between atoms: _213  and  _214
REMARK   90  A    between atoms: _214  and  _215
REMARK   91  A    between atoms: _224  and  _226
REMARK   92  A    between atoms: _226  and  _227
REMARK   93  A    between atoms: _226  and  _229
REMARK   94  A    between atoms: _229  and  _230
REMARK   95  A    between atoms: _232  and  _234
REMARK   96  A    between atoms: _234  and  _235
REMARK   97  A    between atoms: _234  and  _237
REMARK   98  A    between atoms: _240  and  _242
REMARK   99  A    between atoms: _242  and  _243
REMARK  100  A    between atoms: _242  and  _245
REMARK  101  A    between atoms: _245  and  _246
REMARK  102  A    between atoms: _246  and  _247
REMARK  103  A    between atoms: _250  and  _252
REMARK  104  A    between atoms: _252  and  _253
REMARK  105  A    between atoms: _256  and  _258
REMARK  106  A    between atoms: _258  and  _259
REMARK  107  A    between atoms: _258  and  _261
REMARK  108  A    between atoms: _264  and  _266
REMARK  109  A    between atoms: _266  and  _267
REMARK  110  A    between atoms: _266  and  _269
REMARK  111  A    between atoms: _269  and  _270
REMARK  112  A    between atoms: _270  and  _271
REMARK  113  A    between atoms: _274  and  _276
REMARK  114  A    between atoms: _276  and  _277
REMARK  115  A    between atoms: _276  and  _279
REMARK  116  A    between atoms: _279  and  _280
REMARK  117  A    between atoms: _283  and  _285
REMARK  118  A    between atoms: _285  and  _286
REMARK  119  A    between atoms: _285  and  _288
REMARK  120  A    between atoms: _291  and  _293
REMARK  121  A    between atoms: _293  and  _294
REMARK  122  A    between atoms: _293  and  _296
REMARK  123  A    between atoms: _296  and  _297
REMARK  124  A    between atoms: _302  and  _304
REMARK  125  A    between atoms: _304  and  _305
REMARK  126  A    between atoms: _304  and  _307
REMARK  127  A    between atoms: _307  and  _308
REMARK  128  A    between atoms: _308  and  _309
REMARK  129  A    between atoms: _312  and  _314
REMARK  130  A    between atoms: _314  and  _315
REMARK  131  A    between atoms: _314  and  _317
REMARK  132  A    between atoms: _317  and  _318
REMARK  133  A    between atoms: _321  and  _323
REMARK  134  A    between atoms: _323  and  _324
REMARK  135  A    between atoms: _323  and  _326
REMARK  136  A    between atoms: _326  and  _327
REMARK  137  A    between atoms: _330  and  _332
REMARK  138  A    between atoms: _332  and  _333
REMARK  139  A    between atoms: _332  and  _335
REMARK  140  A    between atoms: _335  and  _336
REMARK  141  A    between atoms: _341  and  _342
REMARK  142  A    between atoms: _344  and  _346
REMARK  143  A    between atoms: _346  and  _347
REMARK  144  A    between atoms: _346  and  _349
REMARK  145  A    between atoms: _349  and  _350
REMARK  146  A    between atoms: _353  and  _355
REMARK  147  A    between atoms: _355  and  _356
REMARK  148  A    between atoms: _355  and  _358
REMARK  149  A    between atoms: _358  and  _359
REMARK  150  A    between atoms: _359  and  _360
REMARK  151  A    between atoms: _362  and  _364
REMARK  152  A    between atoms: _364  and  _365
REMARK  153  A    between atoms: _364  and  _367
REMARK  154  A    between atoms: _367  and  _368
REMARK  155  A    between atoms: _371  and  _373
REMARK  156  A    between atoms: _373  and  _374
REMARK  157  A    between atoms: _377  and  _379
REMARK  158  A    between atoms: _379  and  _380
REMARK  159  A    between atoms: _379  and  _382
REMARK  160  A    between atoms: _382  and  _383
REMARK  161  A    between atoms: _385  and  _387
REMARK  162  A    between atoms: _387  and  _388
REMARK  163  A    between atoms: _387  and  _390
REMARK  164  A    between atoms: _390  and  _391
REMARK  165  A    between atoms: _394  and  _396
REMARK  166  A    between atoms: _396  and  _397
REMARK  167  A    between atoms: _396  and  _399
REMARK  168  A    between atoms: _399  and  _400
REMARK  169  A    between atoms: _400  and  _401
REMARK  170  A    between atoms: _403  and  _405
REMARK  171  A    between atoms: _405  and  _406
REMARK  172  A    between atoms: _405  and  _408
REMARK  173  A    between atoms: _411  and  _413
REMARK  174  A    between atoms: _413  and  _414
REMARK  175  A    between atoms: _413  and  _416
REMARK  176  A    between atoms: _416  and  _417
REMARK  177  A    between atoms: _420  and  _422
REMARK  178  A    between atoms: _422  and  _423
REMARK  179  A    between atoms: _422  and  _425
REMARK  180  A    between atoms: _425  and  _426
REMARK  181  A    between atoms: _429  and  _431
REMARK  182  A    between atoms: _431  and  _432
REMARK  183  A    between atoms: _431  and  _434
REMARK  184  A    between atoms: _434  and  _435
REMARK  185  A    between atoms: _437  and  _439
REMARK  186  A    between atoms: _439  and  _440
REMARK  187  A    between atoms: _439  and  _442
REMARK  188  A    between atoms: _442  and  _443
REMARK  189  A    between atoms: _443  and  _444
REMARK  190  A    between atoms: _447  and  _449
REMARK  191  A    between atoms: _449  and  _450
REMARK  192  A    between atoms: _452  and  _454
REMARK  193  A    between atoms: _454  and  _455
REMARK  194  A    between atoms: _454  and  _457
REMARK  195  A    between atoms: _457  and  _458
REMARK  196  A    between atoms: _458  and  _459
REMARK  197  A    between atoms: _464  and  _466
REMARK  198  A    between atoms: _466  and  _467
REMARK  199  A    between atoms: _469  and  _471
REMARK  200  A    between atoms: _471  and  _472
REMARK  201  A    between atoms: _471  and  _474
REMARK  202  A    between atoms: _474  and  _475
REMARK  203  A    between atoms: _475  and  _476
REMARK  204  A    between atoms: _478  and  _480
REMARK  205  A    between atoms: _480  and  _481
REMARK  206  A    between atoms: _480  and  _483
REMARK  207  A    between atoms: _483  and  _484
REMARK  208  A    between atoms: _487  and  _489
REMARK  209  A    between atoms: _489  and  _490
REMARK  210  A    between atoms: _489  and  _492
REMARK  211  A    between atoms: _492  and  _493
REMARK  212  A    between atoms: _499  and  _501
REMARK  213  A    between atoms: _501  and  _502
REMARK  214  A    between atoms: _501  and  _504
REMARK  215  A    between atoms: _504  and  _505
REMARK  216  A    between atoms: _508  and  _510
REMARK  217  A    between atoms: _510  and  _511
REMARK  218  A    between atoms: _510  and  _513
REMARK  219  A    between atoms: _513  and  _514
REMARK  220  A    between atoms: _517  and  _519
REMARK  221  A    between atoms: _519  and  _520
REMARK  222  A    between atoms: _519  and  _522
REMARK  223  A    between atoms: _522  and  _523
REMARK  224  A    between atoms: _529  and  _531
REMARK  225  A    between atoms: _531  and  _532
REMARK  226  A    between atoms: _531  and  _534
REMARK  227  A    between atoms: _534  and  _535
REMARK  228  A    between atoms: _535  and  _536
REMARK  229  A    between atoms: _538  and  _540
REMARK  230  A    between atoms: _540  and  _541
REMARK  231  A    between atoms: _540  and  _543
REMARK  232  A    between atoms: _543  and  _544
REMARK  233  A    between atoms: _544  and  _545
REMARK  234  A    between atoms: _545  and  _546
REMARK  235  A    between atoms: _546  and  _547
REMARK  236  A    between atoms: _551  and  _553
REMARK  237  A    between atoms: _553  and  _554
REMARK  238  A    between atoms: _553  and  _556
REMARK  239  A    between atoms: _556  and  _557
REMARK  240  A    between atoms: _563  and  _565
REMARK  241  A    between atoms: _565  and  _566
REMARK  242  A    between atoms: _565  and  _568
REMARK  243  A    between atoms: _568  and  _569
REMARK  244  A    between atoms: _574  and  _576
REMARK  245  A    between atoms: _576  and  _577
REMARK  246  A    between atoms: _576  and  _579
REMARK  247  A    between atoms: _579  and  _580
REMARK  248  A    between atoms: _585  and  _586
REMARK                            x       y       z     vdW  Elec       q    Type
REMARK                         _______ _______ _______ _____ _____    ______ ____
ROOT
ATOM      1  C   GLY A   9     -16.915  24.745 -12.376  0.00  0.00    +0.243 C 
ATOM      2  N   CYS A  10     -17.945  23.929 -12.580  0.00  0.00    -0.296 N 
ATOM      3  H   CYS A  10     -18.896  24.258 -12.316  0.00  0.00    +0.150 HD
ATOM      4  O   GLY A   9     -15.753  24.439 -12.611  0.00  0.00    -0.273 OA
ENDROOT
BRANCH   2   5
ATOM      5  CA  CYS A  10     -17.809  22.598 -13.155  0.00  0.00    +0.160 C 
BRANCH   5   6
ATOM      6  C   CYS A  10     -17.348  22.661 -14.615  0.00  0.00    +0.242 C 
ATOM      7  O   CYS A  10     -16.540  21.840 -15.048  0.00  0.00    -0.273 OA
ATOM      8  N   GLN A  11     -17.852  23.652 -15.351  0.00  0.00    -0.297 N 
ATOM      9  H   GLN A  11     -18.531  24.311 -14.919  0.00  0.00    +0.150 HD
BRANCH   8  10
ATOM     10  CA  GLN A  11     -17.473  23.835 -16.754  0.00  0.00    +0.149 C 
BRANCH  10  11
ATOM     11  C   GLN A  11     -16.017  24.282 -16.873  0.00  0.00    +0.241 C 
ATOM     12  N   PHE A  12     -15.575  25.145 -15.962  0.00  0.00    -0.297 N 
ATOM     13  H   PHE A  12     -16.226  25.487 -15.227  0.00  0.00    +0.150 HD
ATOM     14  O   GLN A  11     -15.305  23.830 -17.764  0.00  0.00    -0.273 OA
BRANCH  12  15
ATOM     15  CA  PHE A  12     -14.196  25.622 -15.973  0.00  0.00    +0.153 C 
BRANCH  15  16
ATOM     16  C   PHE A  12     -13.191  24.512 -15.692  0.00  0.00    +0.241 C 
ATOM     17  N   ARG A  13     -13.557  23.586 -14.812  0.00  0.00    -0.297 N 
ATOM     18  H   ARG A  13     -14.486  23.653 -14.349  0.00  0.00    +0.150 HD
ATOM     19  O   PHE A  12     -12.100  24.499 -16.266  0.00  0.00    -0.273 OA
BRANCH  17  20
ATOM     20  CA  ARG A  13     -12.674  22.485 -14.492  0.00  0.00    +0.149 C 
BRANCH  20  21
ATOM     21  C   ARG A  13     -12.599  21.511 -15.668  0.00  0.00    +0.241 C 
ATOM     22  O   ARG A  13     -11.549  20.940 -15.924  0.00  0.00    -0.273 OA
ATOM     23  N   SER A  14     -13.716  21.342 -16.370  0.00  0.00    -0.295 N 
ATOM     24  H   SER A  14     -14.588  21.794 -16.030  0.00  0.00    +0.150 HD
BRANCH  23  25
ATOM     25  CA  SER A  14     -13.775  20.551 -17.596  0.00  0.00    +0.178 C 
BRANCH  25  26
ATOM     26  C   SER A  14     -12.831  21.092 -18.669  0.00  0.00    +0.243 C 
ATOM     27  N   VAL A  15     -12.796  22.412 -18.816  0.00  0.00    -0.297 N 
ATOM     28  H   VAL A  15     -13.416  23.002 -18.226  0.00  0.00    +0.150 HD
ATOM     29  O   SER A  14     -12.175  20.319 -19.363  0.00  0.00    -0.273 OA
BRANCH  27  30
ATOM     30  CA  VAL A  15     -11.908  23.062 -19.787  0.00  0.00    +0.149 C 
BRANCH  30  31
ATOM     31  C   VAL A  15     -10.467  22.726 -19.432  0.00  0.00    +0.241 C 
ATOM     32  N   GLU A  16     -10.158  22.819 -18.139  0.00  0.00    -0.297 N 
ATOM     33  H   GLU A  16     -10.887  23.145 -17.473  0.00  0.00    +0.150 HD
ATOM     34  O   VAL A  15      -9.679  22.351 -20.302  0.00  0.00    -0.273 OA
BRANCH  32  35
ATOM     35  CA  GLU A  16      -8.840  22.482 -17.623  0.00  0.00    +0.149 C 
BRANCH  35  36
ATOM     36  C   GLU A  16      -8.562  20.999 -17.815  0.00  0.00    +0.241 C 
ATOM     37  N   ALA A  17      -9.591  20.163 -17.648  0.00  0.00    -0.297 N 
ATOM     38  H   ALA A  17     -10.527  20.534 -17.389  0.00  0.00    +0.150 HD
ATOM     39  O   GLU A  16      -7.430  20.615 -18.095  0.00  0.00    -0.273 OA
BRANCH  37  40
ATOM     40  CA  ALA A  17      -9.399  18.732 -17.829  0.00  0.00    +0.149 C 
ATOM     41  CB  ALA A  17     -10.597  17.936 -17.318  0.00  0.00    +0.031 C 
BRANCH  40  42
ATOM     42  C   ALA A  17      -9.115  18.450 -19.312  0.00  0.00    +0.241 C 
ATOM     43  O   ALA A  17      -8.224  17.670 -19.641  0.00  0.00    -0.273 OA
ATOM     44  N   VAL A  18      -9.838  19.116 -20.205  0.00  0.00    -0.298 N 
ATOM     45  H   VAL A  18     -10.605  19.739 -19.881  0.00  0.00    +0.150 HD
BRANCH  44  46
ATOM     46  CA  VAL A  18      -9.572  18.986 -21.634  0.00  0.00    +0.137 C 
BRANCH  46  47
ATOM     47  CB  VAL A  18     -10.537  19.833 -22.493  0.00  0.00    +0.026 C 
ATOM     48  CG2 VAL A  18     -11.934  19.199 -22.463  0.00  0.00    +0.002 C 
ATOM     49  CG1 VAL A  18     -10.050  19.941 -23.941  0.00  0.00    +0.002 C 
ENDBRANCH  46  47
BRANCH  46  50
ATOM     50  C   VAL A  18      -8.127  19.327 -21.954  0.00  0.00    +0.227 C 
ATOM     51  O   VAL A  18      -7.463  18.589 -22.684  0.00  0.00    -0.286 OA
ENDBRANCH  46  50
ENDBRANCH  44  46
ENDBRANCH  40  42
ENDBRANCH  37  40
ENDBRANCH  35  36
BRANCH  35  52
ATOM     52  CB  GLU A  16      -8.726  22.813 -16.135  0.00  0.00    +0.041 C 
BRANCH  52  53
ATOM     53  CG  GLU A  16      -8.728  24.284 -15.815  0.00  0.00    +0.116 C 
BRANCH  53  54
ATOM     54  CD  GLU A  16      -8.206  24.564 -14.422  0.00  0.00    +0.365 C 
ATOM     55  OE2 GLU A  16      -8.331  23.686 -13.531  0.00  0.00    -0.246 OA
ATOM     56  OE1 GLU A  16      -7.655  25.665 -14.217  0.00  0.00    -0.246 OA
ENDBRANCH  53  54
ENDBRANCH  52  53
ENDBRANCH  35  52
ENDBRANCH  32  35
ENDBRANCH  30  31
BRANCH  30  57
ATOM     57  CB  VAL A  15     -12.114  24.588 -19.824  0.00  0.00    +0.027 C 
ATOM     58  CG2 VAL A  15     -13.451  24.910 -20.486  0.00  0.00    +0.002 C 
ATOM     59  CG1 VAL A  15     -10.976  25.292 -20.573  0.00  0.00    +0.002 C 
ENDBRANCH  30  57
ENDBRANCH  27  30
ENDBRANCH  25  26
BRANCH  25  60
ATOM     60  CB  SER A  14     -15.200  20.550 -18.172  0.00  0.00    +0.166 C 
BRANCH  60  61
ATOM     61  OG  SER A  14     -16.062  19.789 -17.363  0.00  0.00    -0.380 OA
ATOM     62  H   SER A  14     -16.085  20.176 -16.452  0.00  0.00    +0.211 HD
ENDBRANCH  60  61
ENDBRANCH  25  60
ENDBRANCH  23  25
ENDBRANCH  20  21
BRANCH  20  63
ATOM     63  CB  ARG A  13     -13.093  21.789 -13.195  0.00  0.00    +0.033 C 
BRANCH  63  64
ATOM     64  CG  ARG A  13     -12.350  20.497 -12.925  0.00  0.00    +0.045 C 
BRANCH  64  65
ATOM     65  CD  ARG A  13     -10.823  20.673 -12.820  0.00  0.00    +0.174 C 
BRANCH  65  66
ATOM     66  NE  ARG A  13     -10.135  19.441 -13.222  0.00  0.00    -0.265 N 
ATOM     67  HE  ARG A  13     -10.714  18.581 -13.310  0.00  0.00    +0.259 HD
ATOM     68  CZ  ARG A  13      -8.833  19.327 -13.484  0.00  0.00    +0.342 C 
ATOM     69  NH2 ARG A  13      -8.024  20.374 -13.400  0.00  0.00    -0.292 N 
ATOM     70 HH21 ARG A  13      -8.403  21.303 -13.126  0.00  0.00    +0.255 HD
ATOM     71 HH22 ARG A  13      -7.011  20.266 -13.608  0.00  0.00    +0.255 HD
ATOM     72  NH1 ARG A  13      -8.336  18.147 -13.836  0.00  0.00    -0.292 N 
ATOM     73 HH11 ARG A  13      -8.962  17.319 -13.906  0.00  0.00    +0.255 HD
ATOM     74 HH12 ARG A  13      -7.321  18.051 -14.042  0.00  0.00    +0.255 HD
ENDBRANCH  65  66
ENDBRANCH  64  65
ENDBRANCH  63  64
ENDBRANCH  20  63
ENDBRANCH  17  20
ENDBRANCH  15  16
BRANCH  15  75
ATOM     75  CB  PHE A  12     -13.987  26.774 -14.982  0.00  0.00    +0.055 C 
BRANCH  75  76
ATOM     76  CG  PHE A  12     -12.548  27.174 -14.825  0.00  0.00    -0.020 A 
ATOM     77  CD2 PHE A  12     -11.836  26.826 -13.680  0.00  0.00    -0.004 A 
ATOM     78  CE2 PHE A  12     -10.499  27.174 -13.536  0.00  0.00    -0.000 A 
ATOM     79  CZ  PHE A  12      -9.854  27.877 -14.548  0.00  0.00    -0.000 A 
ATOM     80  CE1 PHE A  12     -10.552  28.227 -15.705  0.00  0.00    -0.000 A 
ATOM     81  CD1 PHE A  12     -11.893  27.867 -15.841  0.00  0.00    -0.004 A 
ENDBRANCH  75  76
ENDBRANCH  15  75
ENDBRANCH  12  15
ENDBRANCH  10  11
BRANCH  10  82
ATOM     82  CB  GLN A  11     -18.401  24.827 -17.467  0.00  0.00    +0.039 C 
BRANCH  82  83
ATOM     83  CG  GLN A  11     -19.875  24.401 -17.572  0.00  0.00    +0.087 C 
BRANCH  83  84
ATOM     84  CD  GLN A  11     -20.127  23.247 -18.543  0.00  0.00    +0.219 C 
ATOM     85  OE1 GLN A  11     -19.889  22.083 -18.222  0.00  0.00    -0.275 OA
ATOM     86  NE2 GLN A  11     -20.645  23.572 -19.725  0.00  0.00    -0.329 N 
ATOM     87 HE21 GLN A  11     -20.830  24.569 -19.955  0.00  0.00    +0.145 HD
ATOM     88 HE22 GLN A  11     -20.864  22.829 -20.419  0.00  0.00    +0.145 HD
ENDBRANCH  83  84
ENDBRANCH  82  83
ENDBRANCH  10  82
ENDBRANCH   8  10
ENDBRANCH   5   6
BRANCH   5  89
ATOM     89  CB  CYS A  10     -19.136  21.848 -13.022  0.00  0.00    +0.098 C 
ATOM     90  SG  CYS A  10     -19.301  20.361 -13.975  0.00  0.00    -0.080 S 
ENDBRANCH   5  89
ENDBRANCH   2   5
BRANCH   1  91
ATOM     91  CA  GLY A   9     -17.260  26.119 -11.838  0.00  0.00    +0.176 C 
BRANCH  91  93
ATOM     92  C   GLN A   8     -18.508  26.938 -13.769  0.00  0.00    +0.241 C 
ATOM     93  N   GLY A   9     -18.474  26.617 -12.476  0.00  0.00    -0.295 N 
ATOM     94  H   GLY A   9     -19.337  26.724 -11.906  0.00  0.00    +0.150 HD
ATOM     95  O   GLN A   8     -17.506  26.938 -14.486  0.00  0.00    -0.273 OA
BRANCH  92  96
ATOM     96  CA  GLN A   8     -19.881  27.284 -14.358  0.00  0.00    +0.149 C 
BRANCH  96  98
ATOM     97  C   PHE A   7     -21.158  25.306 -13.798  0.00  0.00    +0.241 C 
ATOM     98  N   GLN A   8     -20.964  26.613 -13.650  0.00  0.00    -0.297 N 
ATOM     99  H   GLN A   8     -21.589  27.160 -13.025  0.00  0.00    +0.150 HD
ATOM    100  O   PHE A   7     -20.458  24.617 -14.519  0.00  0.00    -0.273 OA
BRANCH  97 101
ATOM    101  CA  PHE A   7     -22.308  24.672 -13.028  0.00  0.00    +0.153 C 
BRANCH 101 104
ATOM    102  C   ILE A   6     -21.344  24.972 -10.816  0.00  0.00    +0.241 C 
ATOM    103  O   ILE A   6     -20.319  24.370 -11.126  0.00  0.00    -0.273 OA
ATOM    104  N   PHE A   7     -22.357  25.166 -11.658  0.00  0.00    -0.297 N 
ATOM    105  H   PHE A   7     -23.200  25.680 -11.331  0.00  0.00    +0.150 HD
BRANCH 102 106
ATOM    106  CA  ILE A   6     -21.497  25.556  -9.411  0.00  0.00    +0.149 C 
BRANCH 106 108
ATOM    107  C   ARG A   5     -21.267  27.916 -10.001  0.00  0.00    +0.241 C 
ATOM    108  N   ILE A   6     -21.969  26.926  -9.460  0.00  0.00    -0.297 N 
ATOM    109  H   ILE A   6     -22.901  27.144  -9.053  0.00  0.00    +0.150 HD
ATOM    110  O   ARG A   5     -20.133  27.782 -10.459  0.00  0.00    -0.273 OA
BRANCH 107 111
ATOM    111  CA  ARG A   5     -21.966  29.261 -10.039  0.00  0.00    +0.149 C 
BRANCH 111 113
ATOM    112  C   ILE A   4     -23.654  28.731 -11.723  0.00  0.00    +0.241 C 
ATOM    113  N   ARG A   5     -23.343  29.078 -10.474  0.00  0.00    -0.297 N 
ATOM    114  H   ARG A   5     -24.110  29.223  -9.787  0.00  0.00    +0.150 HD
ATOM    115  O   ILE A   4     -22.809  28.527 -12.598  0.00  0.00    -0.273 OA
BRANCH 112 116
ATOM    116  CA  ILE A   4     -25.147  28.605 -12.043  0.00  0.00    +0.149 C 
BRANCH 116 118
ATOM    117  C   ALA A   3     -25.778  26.844 -10.455  0.00  0.00    +0.241 C 
ATOM    118  N   ILE A   4     -25.910  28.089 -10.902  0.00  0.00    -0.297 N 
ATOM    119  H   ILE A   4     -26.581  28.723 -10.423  0.00  0.00    +0.150 HD
ATOM    120  O   ALA A   3     -25.014  26.032 -10.960  0.00  0.00    -0.273 OA
BRANCH 117 121
ATOM    121  CA  ALA A   3     -26.622  26.455  -9.240  0.00  0.00    +0.149 C 
ATOM    122  CB  ALA A   3     -28.005  26.018  -9.671  0.00  0.00    +0.031 C 
BRANCH 121 125
ATOM    123  C   VAL A   2     -25.631  28.088  -7.703  0.00  0.00    +0.241 C 
ATOM    124  O   VAL A   2     -24.482  27.751  -7.982  0.00  0.00    -0.273 OA
ATOM    125  N   ALA A   3     -26.709  27.532  -8.252  0.00  0.00    -0.297 N 
ATOM    126  H   ALA A   3     -27.649  27.876  -7.968  0.00  0.00    +0.150 HD
BRANCH 123 127
ATOM    127  CA  VAL A   2     -25.872  29.212  -6.690  0.00  0.00    +0.148 C 
BRANCH 127 129
ATOM    128  C   GLU A   1     -26.498  30.945  -8.322  0.00  0.00    +0.238 C 
ATOM    129  N   VAL A   2     -26.746  30.271  -7.200  0.00  0.00    -0.297 N 
ATOM    130  H   VAL A   2     -27.602  30.508  -6.660  0.00  0.00    +0.150 HD
ATOM    131  O   GLU A   1     -25.613  30.635  -9.122  0.00  0.00    -0.274 OA
BRANCH 128 132
ATOM    132  CA  GLU A   1     -27.401  32.149  -8.594  0.00  0.00    +0.145 C 
BRANCH 132 133
ATOM    133  N   GLU A   1     -26.672  33.237  -9.243  0.00  0.00    -0.238 NA
ATOM    134  H   GLU A   1     -27.036  33.609 -10.144  0.00  0.00    +0.142 HD
ENDBRANCH 132 133
BRANCH 132 135
ATOM    135  CB  GLU A   1     -28.576  31.738  -9.474  0.00  0.00    +0.038 C 
BRANCH 135 136
ATOM    136  CG  GLU A   1     -29.664  30.955  -8.770  0.00  0.00    +0.116 C 
BRANCH 136 137
ATOM    137  CD  GLU A   1     -30.496  30.137  -9.739  0.00  0.00    +0.365 C 
ATOM    138  OE2 GLU A   1     -30.634  28.916  -9.509  0.00  0.00    -0.246 OA
ATOM    139  OE1 GLU A   1     -31.006  30.716 -10.730  0.00  0.00    -0.246 OA
ENDBRANCH 136 137
ENDBRANCH 135 136
ENDBRANCH 132 135
ENDBRANCH 128 132
ENDBRANCH 127 129
BRANCH 127 140
ATOM    140  CB  VAL A   2     -26.384  28.657  -5.330  0.00  0.00    +0.027 C 
ATOM    141  CG2 VAL A   2     -26.173  29.686  -4.228  0.00  0.00    +0.002 C 
ATOM    142  CG1 VAL A   2     -25.707  27.342  -4.964  0.00  0.00    +0.002 C 
ENDBRANCH 127 140
ENDBRANCH 123 127
ENDBRANCH 121 125
ENDBRANCH 117 121
ENDBRANCH 116 118
BRANCH 116 143
ATOM    143  CB  ILE A   4     -25.694  29.987 -12.515  0.00  0.00    +0.027 C 
ATOM    144  CG2 ILE A   4     -24.859  30.561 -13.669  0.00  0.00    +0.002 C 
BRANCH 143 145
ATOM    145  CG1 ILE A   4     -27.186  29.902 -12.878  0.00  0.00    +0.002 C 
ATOM    146  CD1 ILE A   4     -27.491  29.320 -14.241  0.00  0.00    +0.000 C 
ENDBRANCH 143 145
ENDBRANCH 116 143
ENDBRANCH 112 116
ENDBRANCH 111 113
BRANCH 111 147
ATOM    147  CB  ARG A   5     -21.919  29.923  -8.664  0.00  0.00    +0.033 C 
BRANCH 147 148
ATOM    148  CG  ARG A   5     -20.836  30.997  -8.536  0.00  0.00    +0.045 C 
BRANCH 148 149
ATOM    149  CD  ARG A   5     -21.260  32.146  -7.601  0.00  0.00    +0.174 C 
BRANCH 149 150
ATOM    150  NE  ARG A   5     -21.147  31.808  -6.179  0.00  0.00    -0.265 N 
ATOM    151  CZ  ARG A   5     -22.171  31.533  -5.368  0.00  0.00    +0.342 C 
ATOM    152  NH2 ARG A   5     -21.941  31.239  -4.091  0.00  0.00    -0.292 N 
ATOM    153 HH21 ARG A   5     -22.736  31.024  -3.456  0.00  0.00    +0.255 HD
ATOM    154 HH22 ARG A   5     -20.966  31.224  -3.728  0.00  0.00    +0.255 HD
ATOM    155  NH1 ARG A   5     -23.422  31.554  -5.817  0.00  0.00    -0.292 N 
ATOM    156 HH11 ARG A   5     -24.209  31.337  -5.173  0.00  0.00    +0.255 HD
ATOM    157 HH12 ARG A   5     -23.613  31.787  -6.812  0.00  0.00    +0.255 HD
ATOM    158  HE  ARG A   5     -20.192  31.780  -5.769  0.00  0.00    +0.259 HD
ENDBRANCH 149 150
ENDBRANCH 148 149
ENDBRANCH 147 148
ENDBRANCH 111 147
ENDBRANCH 107 111
ENDBRANCH 106 108
BRANCH 106 159
ATOM    159  CB  ILE A   6     -22.423  24.686  -8.538  0.00  0.00    +0.027 C 
ATOM    160  CG2 ILE A   6     -22.130  23.191  -8.737  0.00  0.00    +0.002 C 
BRANCH 159 161
ATOM    161  CG1 ILE A   6     -22.289  25.106  -7.068  0.00  0.00    +0.002 C 
ATOM    162  CD1 ILE A   6     -23.260  24.421  -6.149  0.00  0.00    +0.000 C 
ENDBRANCH 159 161
ENDBRANCH 106 159
ENDBRANCH 102 106
ENDBRANCH 101 104
BRANCH 101 163
ATOM    163  CB  PHE A   7     -23.630  24.898 -13.783  0.00  0.00    +0.055 C 
BRANCH 163 164
ATOM    164  CG  PHE A   7     -23.740  24.098 -15.064  0.00  0.00    -0.020 A 
ATOM    165  CD2 PHE A   7     -24.176  22.776 -15.040  0.00  0.00    -0.004 A 
ATOM    166  CE2 PHE A   7     -24.270  22.027 -16.205  0.00  0.00    -0.000 A 
ATOM    167  CZ  PHE A   7     -23.930  22.603 -17.421  0.00  0.00    -0.000 A 
ATOM    168  CE1 PHE A   7     -23.495  23.921 -17.468  0.00  0.00    -0.000 A 
ATOM    169  CD1 PHE A   7     -23.397  24.662 -16.290  0.00  0.00    -0.004 A 
ENDBRANCH 163 164
ENDBRANCH 101 163
ENDBRANCH  97 101
ENDBRANCH  96  98
BRANCH  96 170
ATOM    170  CB  GLN A   8     -20.131  28.790 -14.474  0.00  0.00    +0.039 C 
BRANCH 170 171
ATOM    171  CG  GLN A   8     -21.275  29.104 -15.457  0.00  0.00    +0.087 C 
BRANCH 171 172
ATOM    172  CD  GLN A   8     -21.291  30.533 -15.958  0.00  0.00    +0.219 C 
ATOM    173  OE1 GLN A   8     -21.125  31.479 -15.187  0.00  0.00    -0.275 OA
ATOM    174  NE2 GLN A   8     -21.516  30.699 -17.260  0.00  0.00    -0.329 N 
ATOM    175 HE21 GLN A   8     -21.557  31.657 -17.663  0.00  0.00    +0.145 HD
ATOM    176 HE22 GLN A   8     -21.651  29.871 -17.874  0.00  0.00    +0.145 HD
ENDBRANCH 171 172
ENDBRANCH 170 171
ENDBRANCH  96 170
ENDBRANCH  92  96
ENDBRANCH  91  93
ENDBRANCH   1  91
TORSDOF 70
REMARK  Name = ../refined-set-2016/4a4w/4a4w_pocket.pdb
REMARK  248 active torsions:
REMARK  status: ('A' for Active; 'I' for Inactive)
REMARK    1  A    between atoms: _1  and  _3
REMARK    2  A    between atoms: _3  and  _4
REMARK    3  A    between atoms: _3  and  _6
REMARK    4  A    between atoms: _6  and  _7
REMARK    5  A    between atoms: _14  and  _15
REMARK    6  A    between atoms: _20  and  _22
REMARK    7  A    between atoms: _22  and  _23
REMARK    8  A    between atoms: _22  and  _25
REMARK    9  A    between atoms: _25  and  _26
REMARK   10  A    between atoms: _29  and  _31
REMARK   11  A    between atoms: _31  and  _32
REMARK   12  A    between atoms: _31  and  _34
REMARK   13  A    between atoms: _34  and  _35
REMARK   14  A    between atoms: _38  and  _40
REMARK   15  A    between atoms: _40  and  _41
REMARK   16  A    between atoms: _40  and  _43
REMARK   17  A    between atoms: _43  and  _44
REMARK   18  A    between atoms: _46  and  _48
REMARK   19  A    between atoms: _48  and  _49
REMARK   20  A    between atoms: _48  and  _51
REMARK   21  A    between atoms: _51  and  _52
REMARK   22  A    between atoms: _55  and  _57
REMARK   23  A    between atoms: _57  and  _58
REMARK   24  A    between atoms: _57  and  _60
REMARK   25  A    between atoms: _60  and  _61
REMARK   26  A    between atoms: _61  and  _62
REMARK   27  A    between atoms: _64  and  _66
REMARK   28  A    between atoms: _66  and  _67
REMARK   29  A    between atoms: _69  and  _71
REMARK   30  A    between atoms: _71  and  _72
REMARK   31  A    between atoms: _71  and  _74
REMARK   32  A    between atoms: _74  and  _75
REMARK   33  A    between atoms: _75  and  _76
REMARK   34  A    between atoms: _79  and  _81
REMARK   35  A    between atoms: _81  and  _82
REMARK   36  A    between atoms: _81  and  _84
REMARK   37  A    between atoms: _84  and  _85
REMARK   38  A    between atoms: _88  and  _90
REMARK   39  A    between atoms: _90  and  _91
REMARK   40  A    between atoms: _90  and  _93
REMARK   41  A    between atoms: _93  and  _94
REMARK   42  A    between atoms: _94  and  _95
REMARK   43  A    between atoms: _98  and  _100
REMARK   44  A    between atoms: _100  and  _101
REMARK   45  A    between atoms: _100  and  _103
REMARK   46  A    between atoms: _106  and  _108
REMARK   47  A    between atoms: _108  and  _109
REMARK   48  A    between atoms: _112  and  _114
REMARK   49  A    between atoms: _114  and  _115
REMARK   50  A    between atoms: _114  and  _117
REMARK   51  A    between atoms: _117  and  _118
REMARK   52  A    between atoms: _121  and  _123
REMARK   53  A    between atoms: _123  and  _124
REMARK   54  A    between atoms: _123  and  _126
REMARK   55  A    between atoms: _126  and  _127
REMARK   56  A    between atoms: _127  and  _128
REMARK   57  A    between atoms: _128  and  _129
REMARK   58  A    between atoms: _138  and  _140
REMARK   59  A    between atoms: _140  and  _141
REMARK   60  A    between atoms: _140  and  _143
REMARK   61  A    between atoms: _143  and  _144
REMARK   62  A    between atoms: _147  and  _149
REMARK   63  A    between atoms: _149  and  _150
REMARK   64  A    between atoms: _149  and  _152
REMARK   65  A    between atoms: _152  and  _153
REMARK   66  A    between atoms: _159  and  _161
REMARK   67  A    between atoms: _161  and  _162
REMARK   68  A    between atoms: _161  and  _164
REMARK   69  A    between atoms: _164  and  _165
REMARK   70  A    between atoms: _165  and  _166
REMARK   71  A    between atoms: _171  and  _173
REMARK   72  A    between atoms: _173  and  _174
REMARK   73  A    between atoms: _176  and  _178
REMARK   74  A    between atoms: _178  and  _179
REMARK   75  A    between atoms: _178  and  _181
REMARK   76  A    between atoms: _183  and  _185
REMARK   77  A    between atoms: _185  and  _186
REMARK   78  A    between atoms: _185  and  _188
REMARK   79  A    between atoms: _188  and  _189
REMARK   80  A    between atoms: _189  and  _190
REMARK   81  A    between atoms: _195  and  _197
REMARK   82  A    between atoms: _197  and  _198
REMARK   83  A    between atoms: _197  and  _200
REMARK   84  A    between atoms: _200  and  _201
REMARK   85  A    between atoms: _207  and  _209
REMARK   86  A    between atoms: _209  and  _210
REMARK   87  A    between atoms: _209  and  _212
REMARK   88  A    between atoms: _212  and  _213
REMARK   89  A    between atoms: _213  and  _214
REMARK   90  A    between atoms: _214  and  _215
REMARK   91  A    between atoms: _224  and  _226
REMARK   92  A    between atoms: _226  and  _227
REMARK   93  A    between atoms: _226  and  _229
REMARK   94  A    between atoms: _229  and  _230
REMARK   95  A    between atoms: _232  and  _234
REMARK   96  A    between atoms: _234  and  _235
REMARK   97  A    between atoms: _234  and  _237
REMARK   98  A    between atoms: _240  and  _242
REMARK   99  A    between atoms: _242  and  _243
REMARK  100  A    between atoms: _242  and  _245
REMARK  101  A    between atoms: _245  and  _246
REMARK  102  A    between atoms: _246  and  _247
REMARK  103  A    between atoms: _250  and  _252
REMARK  104  A    between atoms: _252  and  _253
REMARK  105  A    between atoms: _256  and  _258
REMARK  106  A    between atoms: _258  and  _259
REMARK  107  A    between atoms: _258  and  _261
REMARK  108  A    between atoms: _264  and  _266
REMARK  109  A    between atoms: _266  and  _267
REMARK  110  A    between atoms: _266  and  _269
REMARK  111  A    between atoms: _269  and  _270
REMARK  112  A    between atoms: _270  and  _271
REMARK  113  A    between atoms: _274  and  _276
REMARK  114  A    between atoms: _276  and  _277
REMARK  115  A    between atoms: _276  and  _279
REMARK  116  A    between atoms: _279  and  _280
REMARK  117  A    between atoms: _283  and  _285
REMARK  118  A    between atoms: _285  and  _286
REMARK  119  A    between atoms: _285  and  _288
REMARK  120  A    between atoms: _291  and  _293
REMARK  121  A    between atoms: _293  and  _294
REMARK  122  A    between atoms: _293  and  _296
REMARK  123  A    between atoms: _296  and  _297
REMARK  124  A    between atoms: _302  and  _304
REMARK  125  A    between atoms: _304  and  _305
REMARK  126  A    between atoms: _304  and  _307
REMARK  127  A    between atoms: _307  and  _308
REMARK  128  A    between atoms: _308  and  _309
REMARK  129  A    between atoms: _312  and  _314
REMARK  130  A    between atoms: _314  and  _315
REMARK  131  A    between atoms: _314  and  _317
REMARK  132  A    between atoms: _317  and  _318
REMARK  133  A    between atoms: _321  and  _323
REMARK  134  A    between atoms: _323  and  _324
REMARK  135  A    between atoms: _323  and  _326
REMARK  136  A    between atoms: _326  and  _327
REMARK  137  A    between atoms: _330  and  _332
REMARK  138  A    between atoms: _332  and  _333
REMARK  139  A    between atoms: _332  and  _335
REMARK  140  A    between atoms: _335  and  _336
REMARK  141  A    between atoms: _341  and  _342
REMARK  142  A    between atoms: _344  and  _346
REMARK  143  A    between atoms: _346  and  _347
REMARK  144  A    between atoms: _346  and  _349
REMARK  145  A    between atoms: _349  and  _350
REMARK  146  A    between atoms: _353  and  _355
REMARK  147  A    between atoms: _355  and  _356
REMARK  148  A    between atoms: _355  and  _358
REMARK  149  A    between atoms: _358  and  _359
REMARK  150  A    between atoms: _359  and  _360
REMARK  151  A    between atoms: _362  and  _364
REMARK  152  A    between atoms: _364  and  _365
REMARK  153  A    between atoms: _364  and  _367
REMARK  154  A    between atoms: _367  and  _368
REMARK  155  A    between atoms: _371  and  _373
REMARK  156  A    between atoms: _373  and  _374
REMARK  157  A    between atoms: _377  and  _379
REMARK  158  A    between atoms: _379  and  _380
REMARK  159  A    between atoms: _379  and  _382
REMARK  160  A    between atoms: _382  and  _383
REMARK  161  A    between atoms: _385  and  _387
REMARK  162  A    between atoms: _387  and  _388
REMARK  163  A    between atoms: _387  and  _390
REMARK  164  A    between atoms: _390  and  _391
REMARK  165  A    between atoms: _394  and  _396
REMARK  166  A    between atoms: _396  and  _397
REMARK  167  A    between atoms: _396  and  _399
REMARK  168  A    between atoms: _399  and  _400
REMARK  169  A    between atoms: _400  and  _401
REMARK  170  A    between atoms: _403  and  _405
REMARK  171  A    between atoms: _405  and  _406
REMARK  172  A    between atoms: _405  and  _408
REMARK  173  A    between atoms: _411  and  _413
REMARK  174  A    between atoms: _413  and  _414
REMARK  175  A    between atoms: _413  and  _416
REMARK  176  A    between atoms: _416  and  _417
REMARK  177  A    between atoms: _420  and  _422
REMARK  178  A    between atoms: _422  and  _423
REMARK  179  A    between atoms: _422  and  _425
REMARK  180  A    between atoms: _425  and  _426
REMARK  181  A    between atoms: _429  and  _431
REMARK  182  A    between atoms: _431  and  _432
REMARK  183  A    between atoms: _431  and  _434
REMARK  184  A    between atoms: _434  and  _435
REMARK  185  A    between atoms: _437  and  _439
REMARK  186  A    between atoms: _439  and  _440
REMARK  187  A    between atoms: _439  and  _442
REMARK  188  A    between atoms: _442  and  _443
REMARK  189  A    between atoms: _443  and  _444
REMARK  190  A    between atoms: _447  and  _449
REMARK  191  A    between atoms: _449  and  _450
REMARK  192  A    between atoms: _452  and  _454
REMARK  193  A    between atoms: _454  and  _455
REMARK  194  A    between atoms: _454  and  _457
REMARK  195  A    between atoms: _457  and  _458
REMARK  196  A    between atoms: _458  and  _459
REMARK  197  A    between atoms: _464  and  _466
REMARK  198  A    between atoms: _466  and  _467
REMARK  199  A    between atoms: _469  and  _471
REMARK  200  A    between atoms: _471  and  _472
REMARK  201  A    between atoms: _471  and  _474
REMARK  202  A    between atoms: _474  and  _475
REMARK  203  A    between atoms: _475  and  _476
REMARK  204  A    between atoms: _478  and  _480
REMARK  205  A    between atoms: _480  and  _481
REMARK  206  A    between atoms: _480  and  _483
REMARK  207  A    between atoms: _483  and  _484
REMARK  208  A    between atoms: _487  and  _489
REMARK  209  A    between atoms: _489  and  _490
REMARK  210  A    between atoms: _489  and  _492
REMARK  211  A    between atoms: _492  and  _493
REMARK  212  A    between atoms: _499  and  _501
REMARK  213  A    between atoms: _501  and  _502
REMARK  214  A    between atoms: _501  and  _504
REMARK  215  A    between atoms: _504  and  _505
REMARK  216  A    between atoms: _508  and  _510
REMARK  217  A    between atoms: _510  and  _511
REMARK  218  A    between atoms: _510  and  _513
REMARK  219  A    between atoms: _513  and  _514
REMARK  220  A    between atoms: _517  and  _519
REMARK  221  A    between atoms: _519  and  _520
REMARK  222  A    between atoms: _519  and  _522
REMARK  223  A    between atoms: _522  and  _523
REMARK  224  A    between atoms: _529  and  _531
REMARK  225  A    between atoms: _531  and  _532
REMARK  226  A    between atoms: _531  and  _534
REMARK  227  A    between atoms: _534  and  _535
REMARK  228  A    between atoms: _535  and  _536
REMARK  229  A    between atoms: _538  and  _540
REMARK  230  A    between atoms: _540  and  _541
REMARK  231  A    between atoms: _540  and  _543
REMARK  232  A    between atoms: _543  and  _544
REMARK  233  A    between atoms: _544  and  _545
REMARK  234  A    between atoms: _545  and  _546
REMARK  235  A    between atoms: _546  and  _547
REMARK  236  A    between atoms: _551  and  _553
REMARK  237  A    between atoms: _553  and  _554
REMARK  238  A    between atoms: _553  and  _556
REMARK  239  A    between atoms: _556  and  _557
REMARK  240  A    between atoms: _563  and  _565
REMARK  241  A    between atoms: _565  and  _566
REMARK  242  A    between atoms: _565  and  _568
REMARK  243  A    between atoms: _568  and  _569
REMARK  244  A    between atoms: _574  and  _576
REMARK  245  A    between atoms: _576  and  _577
REMARK  246  A    between atoms: _576  and  _579
REMARK  247  A    between atoms: _579  and  _580
REMARK  248  A    between atoms: _585  and  _586
REMARK                            x       y       z     vdW  Elec       q    Type
REMARK                         _______ _______ _______ _____ _____    ______ ____
ROOT
ATOM      1  C   GLU A   1      -4.794  16.850 -20.244  0.00  0.00    +0.238 C 
ATOM      2  O   GLU A   1      -3.761  16.246 -20.549  0.00  0.00    -0.274 OA
ATOM      3  N   ILE A   2      -6.002  16.466 -20.663  0.00  0.00    -0.298 N 
ATOM      4  H   ILE A   2      -6.837  17.033 -20.414  0.00  0.00    +0.150 HD
ENDROOT
BRANCH   1   5
ATOM      5  CA  GLU A   1      -4.737  18.091 -19.361  0.00  0.00    +0.145 C 
BRANCH   5   6
ATOM      6  N   GLU A   1      -5.573  19.174 -19.887  0.00  0.00    -0.238 NA
ATOM      7  H   GLU A   1      -6.376  19.524 -19.326  0.00  0.00    +0.142 HD
ENDBRANCH   5   6
BRANCH   5   8
ATOM      8  CB  GLU A   1      -5.153  17.752 -17.938  0.00  0.00    +0.038 C 
BRANCH   8   9
ATOM      9  CG  GLU A   1      -5.042  18.953 -17.033  0.00  0.00    +0.116 C 
BRANCH   9  10
ATOM     10  CD  GLU A   1      -5.582  18.699 -15.647  0.00  0.00    +0.365 C 
ATOM     11  OE2 GLU A   1      -5.477  19.622 -14.824  0.00  0.00    -0.246 OA
ATOM     12  OE1 GLU A   1      -6.100  17.593 -15.376  0.00  0.00    -0.246 OA
ENDBRANCH   9  10
ENDBRANCH   8   9
ENDBRANCH   5   8
ENDBRANCH   1   5
BRANCH   3  13
ATOM     13  CA  ILE A   2      -6.162  15.257 -21.467  0.00  0.00    +0.137 C 
BRANCH  13  14
ATOM     14  CB  ILE A   2      -7.651  14.926 -21.693  0.00  0.00    +0.026 C 
ATOM     15  CG2 ILE A   2      -7.814  13.784 -22.721  0.00  0.00    +0.002 C 
BRANCH  14  16
ATOM     16  CG1 ILE A   2      -8.333  14.514 -20.384  0.00  0.00    +0.002 C 
ATOM     17  CD1 ILE A   2      -9.865  14.861 -20.340  0.00  0.00    +0.000 C 
ENDBRANCH  14  16
ENDBRANCH  13  14
BRANCH  13  18
ATOM     18  C   ILE A   2      -5.489  15.482 -22.829  0.00  0.00    +0.227 C 
ATOM     19  O   ILE A   2      -4.900  14.566 -23.408  0.00  0.00    -0.286 OA
ENDBRANCH  13  18
ENDBRANCH   3  13
TORSDOF 9
REMARK  Name = ../refined-set-2016/4a4w/4a4w_pocket.pdb
REMARK  248 active torsions:
REMARK  status: ('A' for Active; 'I' for Inactive)
REMARK    1  A    between atoms: _1  and  _3
REMARK    2  A    between atoms: _3  and  _4
REMARK    3  A    between atoms: _3  and  _6
REMARK    4  A    between atoms: _6  and  _7
REMARK    5  A    between atoms: _14  and  _15
REMARK    6  A    between atoms: _20  and  _22
REMARK    7  A    between atoms: _22  and  _23
REMARK    8  A    between atoms: _22  and  _25
REMARK    9  A    between atoms: _25  and  _26
REMARK   10  A    between atoms: _29  and  _31
REMARK   11  A    between atoms: _31  and  _32
REMARK   12  A    between atoms: _31  and  _34
REMARK   13  A    between atoms: _34  and  _35
REMARK   14  A    between atoms: _38  and  _40
REMARK   15  A    between atoms: _40  and  _41
REMARK   16  A    between atoms: _40  and  _43
REMARK   17  A    between atoms: _43  and  _44
REMARK   18  A    between atoms: _46  and  _48
REMARK   19  A    between atoms: _48  and  _49
REMARK   20  A    between atoms: _48  and  _51
REMARK   21  A    between atoms: _51  and  _52
REMARK   22  A    between atoms: _55  and  _57
REMARK   23  A    between atoms: _57  and  _58
REMARK   24  A    between atoms: _57  and  _60
REMARK   25  A    between atoms: _60  and  _61
REMARK   26  A    between atoms: _61  and  _62
REMARK   27  A    between atoms: _64  and  _66
REMARK   28  A    between atoms: _66  and  _67
REMARK   29  A    between atoms: _69  and  _71
REMARK   30  A    between atoms: _71  and  _72
REMARK   31  A    between atoms: _71  and  _74
REMARK   32  A    between atoms: _74  and  _75
REMARK   33  A    between atoms: _75  and  _76
REMARK   34  A    between atoms: _79  and  _81
REMARK   35  A    between atoms: _81  and  _82
REMARK   36  A    between atoms: _81  and  _84
REMARK   37  A    between atoms: _84  and  _85
REMARK   38  A    between atoms: _88  and  _90
REMARK   39  A    between atoms: _90  and  _91
REMARK   40  A    between atoms: _90  and  _93
REMARK   41  A    between atoms: _93  and  _94
REMARK   42  A    between atoms: _94  and  _95
REMARK   43  A    between atoms: _98  and  _100
REMARK   44  A    between atoms: _100  and  _101
REMARK   45  A    between atoms: _100  and  _103
REMARK   46  A    between atoms: _106  and  _108
REMARK   47  A    between atoms: _108  and  _109
REMARK   48  A    between atoms: _112  and  _114
REMARK   49  A    between atoms: _114  and  _115
REMARK   50  A    between atoms: _114  and  _117
REMARK   51  A    between atoms: _117  and  _118
REMARK   52  A    between atoms: _121  and  _123
REMARK   53  A    between atoms: _123  and  _124
REMARK   54  A    between atoms: _123  and  _126
REMARK   55  A    between atoms: _126  and  _127
REMARK   56  A    between atoms: _127  and  _128
REMARK   57  A    between atoms: _128  and  _129
REMARK   58  A    between atoms: _138  and  _140
REMARK   59  A    between atoms: _140  and  _141
REMARK   60  A    between atoms: _140  and  _143
REMARK   61  A    between atoms: _143  and  _144
REMARK   62  A    between atoms: _147  and  _149
REMARK   63  A    between atoms: _149  and  _150
REMARK   64  A    between atoms: _149  and  _152
REMARK   65  A    between atoms: _152  and  _153
REMARK   66  A    between atoms: _159  and  _161
REMARK   67  A    between atoms: _161  and  _162
REMARK   68  A    between atoms: _161  and  _164
REMARK   69  A    between atoms: _164  and  _165
REMARK   70  A    between atoms: _165  and  _166
REMARK   71  A    between atoms: _171  and  _173
REMARK   72  A    between atoms: _173  and  _174
REMARK   73  A    between atoms: _176  and  _178
REMARK   74  A    between atoms: _178  and  _179
REMARK   75  A    between atoms: _178  and  _181
REMARK   76  A    between atoms: _183  and  _185
REMARK   77  A    between atoms: _185  and  _186
REMARK   78  A    between atoms: _185  and  _188
REMARK   79  A    between atoms: _188  and  _189
REMARK   80  A    between atoms: _189  and  _190
REMARK   81  A    between atoms: _195  and  _197
REMARK   82  A    between atoms: _197  and  _198
REMARK   83  A    between atoms: _197  and  _200
REMARK   84  A    between atoms: _200  and  _201
REMARK   85  A    between atoms: _207  and  _209
REMARK   86  A    between atoms: _209  and  _210
REMARK   87  A    between atoms: _209  and  _212
REMARK   88  A    between atoms: _212  and  _213
REMARK   89  A    between atoms: _213  and  _214
REMARK   90  A    between atoms: _214  and  _215
REMARK   91  A    between atoms: _224  and  _226
REMARK   92  A    between atoms: _226  and  _227
REMARK   93  A    between atoms: _226  and  _229
REMARK   94  A    between atoms: _229  and  _230
REMARK   95  A    between atoms: _232  and  _234
REMARK   96  A    between atoms: _234  and  _235
REMARK   97  A    between atoms: _234  and  _237
REMARK   98  A    between atoms: _240  and  _242
REMARK   99  A    between atoms: _242  and  _243
REMARK  100  A    between atoms: _242  and  _245
REMARK  101  A    between atoms: _245  and  _246
REMARK  102  A    between atoms: _246  and  _247
REMARK  103  A    between atoms: _250  and  _252
REMARK  104  A    between atoms: _252  and  _253
REMARK  105  A    between atoms: _256  and  _258
REMARK  106  A    between atoms: _258  and  _259
REMARK  107  A    between atoms: _258  and  _261
REMARK  108  A    between atoms: _264  and  _266
REMARK  109  A    between atoms: _266  and  _267
REMARK  110  A    between atoms: _266  and  _269
REMARK  111  A    between atoms: _269  and  _270
REMARK  112  A    between atoms: _270  and  _271
REMARK  113  A    between atoms: _274  and  _276
REMARK  114  A    between atoms: _276  and  _277
REMARK  115  A    between atoms: _276  and  _279
REMARK  116  A    between atoms: _279  and  _280
REMARK  117  A    between atoms: _283  and  _285
REMARK  118  A    between atoms: _285  and  _286
REMARK  119  A    between atoms: _285  and  _288
REMARK  120  A    between atoms: _291  and  _293
REMARK  121  A    between atoms: _293  and  _294
REMARK  122  A    between atoms: _293  and  _296
REMARK  123  A    between atoms: _296  and  _297
REMARK  124  A    between atoms: _302  and  _304
REMARK  125  A    between atoms: _304  and  _305
REMARK  126  A    between atoms: _304  and  _307
REMARK  127  A    between atoms: _307  and  _308
REMARK  128  A    between atoms: _308  and  _309
REMARK  129  A    between atoms: _312  and  _314
REMARK  130  A    between atoms: _314  and  _315
REMARK  131  A    between atoms: _314  and  _317
REMARK  132  A    between atoms: _317  and  _318
REMARK  133  A    between atoms: _321  and  _323
REMARK  134  A    between atoms: _323  and  _324
REMARK  135  A    between atoms: _323  and  _326
REMARK  136  A    between atoms: _326  and  _327
REMARK  137  A    between atoms: _330  and  _332
REMARK  138  A    between atoms: _332  and  _333
REMARK  139  A    between atoms: _332  and  _335
REMARK  140  A    between atoms: _335  and  _336
REMARK  141  A    between atoms: _341  and  _342
REMARK  142  A    between atoms: _344  and  _346
REMARK  143  A    between atoms: _346  and  _347
REMARK  144  A    between atoms: _346  and  _349
REMARK  145  A    between atoms: _349  and  _350
REMARK  146  A    between atoms: _353  and  _355
REMARK  147  A    between atoms: _355  and  _356
REMARK  148  A    between atoms: _355  and  _358
REMARK  149  A    between atoms: _358  and  _359
REMARK  150  A    between atoms: _359  and  _360
REMARK  151  A    between atoms: _362  and  _364
REMARK  152  A    between atoms: _364  and  _365
REMARK  153  A    between atoms: _364  and  _367
REMARK  154  A    between atoms: _367  and  _368
REMARK  155  A    between atoms: _371  and  _373
REMARK  156  A    between atoms: _373  and  _374
REMARK  157  A    between atoms: _377  and  _379
REMARK  158  A    between atoms: _379  and  _380
REMARK  159  A    between atoms: _379  and  _382
REMARK  160  A    between atoms: _382  and  _383
REMARK  161  A    between atoms: _385  and  _387
REMARK  162  A    between atoms: _387  and  _388
REMARK  163  A    between atoms: _387  and  _390
REMARK  164  A    between atoms: _390  and  _391
REMARK  165  A    between atoms: _394  and  _396
REMARK  166  A    between atoms: _396  and  _397
REMARK  167  A    between atoms: _396  and  _399
REMARK  168  A    between atoms: _399  and  _400
REMARK  169  A    between atoms: _400  and  _401
REMARK  170  A    between atoms: _403  and  _405
REMARK  171  A    between atoms: _405  and  _406
REMARK  172  A    between atoms: _405  and  _408
REMARK  173  A    between atoms: _411  and  _413
REMARK  174  A    between atoms: _413  and  _414
REMARK  175  A    between atoms: _413  and  _416
REMARK  176  A    between atoms: _416  and  _417
REMARK  177  A    between atoms: _420  and  _422
REMARK  178  A    between atoms: _422  and  _423
REMARK  179  A    between atoms: _422  and  _425
REMARK  180  A    between atoms: _425  and  _426
REMARK  181  A    between atoms: _429  and  _431
REMARK  182  A    between atoms: _431  and  _432
REMARK  183  A    between atoms: _431  and  _434
REMARK  184  A    between atoms: _434  and  _435
REMARK  185  A    between atoms: _437  and  _439
REMARK  186  A    between atoms: _439  and  _440
REMARK  187  A    between atoms: _439  and  _442
REMARK  188  A    between atoms: _442  and  _443
REMARK  189  A    between atoms: _443  and  _444
REMARK  190  A    between atoms: _447  and  _449
REMARK  191  A    between atoms: _449  and  _450
REMARK  192  A    between atoms: _452  and  _454
REMARK  193  A    between atoms: _454  and  _455
REMARK  194  A    between atoms: _454  and  _457
REMARK  195  A    between atoms: _457  and  _458
REMARK  196  A    between atoms: _458  and  _459
REMARK  197  A    between atoms: _464  and  _466
REMARK  198  A    between atoms: _466  and  _467
REMARK  199  A    between atoms: _469  and  _471
REMARK  200  A    between atoms: _471  and  _472
REMARK  201  A    between atoms: _471  and  _474
REMARK  202  A    between atoms: _474  and  _475
REMARK  203  A    between atoms: _475  and  _476
REMARK  204  A    between atoms: _478  and  _480
REMARK  205  A    between atoms: _480  and  _481
REMARK  206  A    between atoms: _480  and  _483
REMARK  207  A    between atoms: _483  and  _484
REMARK  208  A    between atoms: _487  and  _489
REMARK  209  A    between atoms: _489  and  _490
REMARK  210  A    between atoms: _489  and  _492
REMARK  211  A    between atoms: _492  and  _493
REMARK  212  A    between atoms: _499  and  _501
REMARK  213  A    between atoms: _501  and  _502
REMARK  214  A    between atoms: _501  and  _504
REMARK  215  A    between atoms: _504  and  _505
REMARK  216  A    between atoms: _508  and  _510
REMARK  217  A    between atoms: _510  and  _511
REMARK  218  A    between atoms: _510  and  _513
REMARK  219  A    between atoms: _513  and  _514
REMARK  220  A    between atoms: _517  and  _519
REMARK  221  A    between atoms: _519  and  _520
REMARK  222  A    between atoms: _519  and  _522
REMARK  223  A    between atoms: _522  and  _523
REMARK  224  A    between atoms: _529  and  _531
REMARK  225  A    between atoms: _531  and  _532
REMARK  226  A    between atoms: _531  and  _534
REMARK  227  A    between atoms: _534  and  _535
REMARK  228  A    between atoms: _535  and  _536
REMARK  229  A    between atoms: _538  and  _540
REMARK  230  A    between atoms: _540  and  _541
REMARK  231  A    between atoms: _540  and  _543
REMARK  232  A    between atoms: _543  and  _544
REMARK  233  A    between atoms: _544  and  _545
REMARK  234  A    between atoms: _545  and  _546
REMARK  235  A    between atoms: _546  and  _547
REMARK  236  A    between atoms: _551  and  _553
REMARK  237  A    between atoms: _553  and  _554
REMARK  238  A    between atoms: _553  and  _556
REMARK  239  A    between atoms: _556  and  _557
REMARK  240  A    between atoms: _563  and  _565
REMARK  241  A    between atoms: _565  and  _566
REMARK  242  A    between atoms: _565  and  _568
REMARK  243  A    between atoms: _568  and  _569
REMARK  244  A    between atoms: _574  and  _576
REMARK  245  A    between atoms: _576  and  _577
REMARK  246  A    between atoms: _576  and  _579
REMARK  247  A    between atoms: _579  and  _580
REMARK  248  A    between atoms: _585  and  _586
REMARK                            x       y       z     vdW  Elec       q    Type
REMARK                         _______ _______ _______ _____ _____    ______ ____
ROOT
ATOM      1  C   TYR A   6     -15.376   9.803 -15.919  0.00  0.00    +0.241 C 
ATOM      2  O   TYR A   6     -15.578   9.489 -14.756  0.00  0.00    -0.273 OA
ATOM      3  N   THR A   7     -14.480   9.196 -16.701  0.00  0.00    -0.295 N 
ATOM      4  H   THR A   7     -14.414   9.461 -17.704  0.00  0.00    +0.150 HD
ENDROOT
BRANCH   1   5
ATOM      5  CA  TYR A   6     -16.113  10.994 -16.500  0.00  0.00    +0.153 C 
BRANCH   5   8
ATOM      6  C   ILE A   5     -14.266  12.516 -16.992  0.00  0.00    +0.241 C 
ATOM      7  O   ILE A   5     -13.963  12.572 -15.805  0.00  0.00    -0.273 OA
ATOM      8  N   TYR A   6     -15.292  11.794 -17.432  0.00  0.00    -0.297 N 
ATOM      9  H   TYR A   6     -15.520  11.792 -18.447  0.00  0.00    +0.150 HD
BRANCH   6  10
ATOM     10  CA  ILE A   5     -13.451  13.280 -18.042  0.00  0.00    +0.149 C 
BRANCH  10  13
ATOM     11  C   ILE A   4     -12.413  11.302 -18.974  0.00  0.00    +0.241 C 
ATOM     12  O   ILE A   4     -12.096  10.880 -17.862  0.00  0.00    -0.273 OA
ATOM     13  N   ILE A   5     -13.072  12.435 -19.153  0.00  0.00    -0.297 N 
ATOM     14  H   ILE A   5     -13.324  12.726 -20.119  0.00  0.00    +0.150 HD
BRANCH  11  15
ATOM     15  CA  ILE A   4     -12.089  10.511 -20.238  0.00  0.00    +0.149 C 
BRANCH  15  18
ATOM     16  C   GLU A   3     -14.360   9.855 -20.852  0.00  0.00    +0.241 C 
ATOM     17  O   GLU A   3     -14.513   9.226 -19.803  0.00  0.00    -0.273 OA
ATOM     18  N   ILE A   4     -13.235  10.517 -21.153  0.00  0.00    -0.297 N 
ATOM     19  H   ILE A   4     -13.173  11.043 -22.048  0.00  0.00    +0.150 HD
BRANCH  16  20
ATOM     20  CA  GLU A   3     -15.494   9.948 -21.873  0.00  0.00    +0.149 C 
BRANCH  20  23
ATOM     21  C   HIS A   2     -15.747  12.339 -21.606  0.00  0.00    +0.241 C 
ATOM     22  O   HIS A   2     -15.920  12.221 -20.396  0.00  0.00    -0.273 OA
ATOM     23  N   GLU A   3     -15.584  11.302 -22.417  0.00  0.00    -0.297 N 
ATOM     24  H   GLU A   3     -15.520  11.453 -23.444  0.00  0.00    +0.150 HD
BRANCH  21  25
ATOM     25  CA  HIS A   2     -15.694  13.695 -22.234  0.00  0.00    +0.155 C 
BRANCH  25  28
ATOM     26  C   VAL A   1     -13.383  13.808 -22.860  0.00  0.00    +0.238 C 
ATOM     27  O   VAL A   1     -13.068  13.653 -21.695  0.00  0.00    -0.274 OA
ATOM     28  N   HIS A   2     -14.655  13.832 -23.252  0.00  0.00    -0.297 N 
ATOM     29  H   HIS A   2     -14.902  13.945 -24.256  0.00  0.00    +0.150 HD
BRANCH  26  30
ATOM     30  CA  VAL A   1     -12.290  13.955 -23.911  0.00  0.00    +0.145 C 
BRANCH  30  31
ATOM     31  CB  VAL A   1     -11.875  15.459 -24.079  0.00  0.00    +0.025 C 
ATOM     32  CG2 VAL A   1     -13.007  16.287 -24.638  0.00  0.00    +0.002 C 
ATOM     33  CG1 VAL A   1     -10.607  15.606 -24.897  0.00  0.00    +0.002 C 
ENDBRANCH  30  31
BRANCH  30  34
ATOM     34  N   VAL A   1     -12.567  13.244 -25.143  0.00  0.00    -0.238 NA
ATOM     35  H   VAL A   1     -12.683  13.760 -26.038  0.00  0.00    +0.142 HD
ENDBRANCH  30  34
ENDBRANCH  26  30
ENDBRANCH  25  28
BRANCH  25  36
ATOM     36  CB  HIS A   2     -17.055  14.116 -22.750  0.00  0.00    +0.076 C 
BRANCH  36  37
ATOM     37  CG  HIS A   2     -17.239  15.587 -22.705  0.00  0.00    +0.082 A 
ATOM     38  CD2 HIS A   2     -17.591  16.406 -21.687  0.00  0.00    +0.115 A 
ATOM     39  NE2 HIS A   2     -17.527  17.691 -22.166  0.00  0.00    -0.221 NA
ATOM     40  CE1 HIS A   2     -17.116  17.661 -23.421  0.00  0.00    +0.199 A 
ATOM     41  ND1 HIS A   2     -16.923  16.400 -23.767  0.00  0.00    -0.227 NA
ENDBRANCH  36  37
ENDBRANCH  25  36
ENDBRANCH  21  25
ENDBRANCH  20  23
BRANCH  20  42
ATOM     42  CB  GLU A   3     -15.317   8.926 -22.991  0.00  0.00    +0.041 C 
BRANCH  42  43
ATOM     43  CG  GLU A   3     -16.508   8.923 -23.946  0.00  0.00    +0.116 C 
BRANCH  43  44
ATOM     44  CD  GLU A   3     -16.284   8.025 -25.128  0.00  0.00    +0.365 C 
ATOM     45  OE2 GLU A   3     -15.188   7.403 -25.214  0.00  0.00    -0.246 OA
ATOM     46  OE1 GLU A   3     -17.200   7.952 -25.964  0.00  0.00    -0.246 OA
ENDBRANCH  43  44
ENDBRANCH  42  43
ENDBRANCH  20  42
ENDBRANCH  16  20
ENDBRANCH  15  18
BRANCH  15  47
ATOM     47  CB  ILE A   4     -10.820  11.034 -20.905  0.00  0.00    +0.027 C 
ATOM     48  CG2 ILE A   4      -9.703  11.153 -19.868  0.00  0.00    +0.002 C 
BRANCH  47  49
ATOM     49  CG1 ILE A   4     -10.453  10.111 -22.062  0.00  0.00    +0.002 C 
ATOM     50  CD1 ILE A   4      -9.232  10.504 -22.799  0.00  0.00    +0.000 C 
ENDBRANCH  47  49
ENDBRANCH  15  47
ENDBRANCH  11  15
ENDBRANCH  10  13
BRANCH  10  51
ATOM     51  CB  ILE A   5     -14.189  14.543 -18.546  0.00  0.00    +0.027 C 
ATOM     52  CG2 ILE A   5     -15.050  15.150 -17.449  0.00  0.00    +0.002 C 
BRANCH  51  53
ATOM     53  CG1 ILE A   5     -13.175  15.590 -19.057  0.00  0.00    +0.002 C 
ATOM     54  CD1 ILE A   5     -13.856  16.825 -19.721  0.00  0.00    +0.000 C 
ENDBRANCH  51  53
ENDBRANCH  10  51
ENDBRANCH   6  10
ENDBRANCH   5   8
BRANCH   5  55
ATOM     55  CB  TYR A   6     -17.421  10.595 -17.169  0.00  0.00    +0.055 C 
BRANCH  55  56
ATOM     56  CG  TYR A   6     -18.111  11.844 -17.646  0.00  0.00    -0.020 A 
ATOM     57  CD2 TYR A   6     -18.147  12.986 -16.827  0.00  0.00    -0.001 A 
ATOM     58  CE2 TYR A   6     -18.744  14.163 -17.253  0.00  0.00    +0.036 A 
ATOM     59  CZ  TYR A   6     -19.295  14.209 -18.521  0.00  0.00    +0.134 A 
ATOM     60  CE1 TYR A   6     -19.267  13.096 -19.358  0.00  0.00    +0.036 A 
ATOM     61  CD1 TYR A   6     -18.666  11.922 -18.918  0.00  0.00    -0.001 A 
BRANCH  59  62
ATOM     62  OH  TYR A   6     -19.895  15.363 -18.954  0.00  0.00    -0.506 OA
ATOM     63  HH  TYR A   6     -19.830  16.053 -18.247  0.00  0.00    +0.292 HD
ENDBRANCH  59  62
ENDBRANCH  55  56
ENDBRANCH   5  55
ENDBRANCH   1   5
BRANCH   3  64
ATOM     64  CA  THR A   7     -13.580   8.152 -16.163  0.00  0.00    +0.176 C 
BRANCH  64  65
ATOM     65  C   THR A   7     -12.763   8.696 -15.008  0.00  0.00    +0.243 C 
ATOM     66  O   THR A   7     -12.761   8.135 -13.899  0.00  0.00    -0.273 OA
ATOM     67  N   MET A   8     -12.100   9.825 -15.248  0.00  0.00    -0.297 N 
ATOM     68  H   MET A   8     -12.227  10.320 -16.154  0.00  0.00    +0.150 HD
BRANCH  67  69
ATOM     69  CA  MET A   8     -11.204  10.362 -14.250  0.00  0.00    +0.149 C 
BRANCH  69  70
ATOM     70  C   MET A   8     -11.967  11.023 -13.112  0.00  0.00    +0.241 C 
ATOM     71  O   MET A   8     -11.512  11.004 -11.990  0.00  0.00    -0.273 OA
ATOM     72  N   LEU A   9     -13.140  11.583 -13.405  0.00  0.00    -0.297 N 
ATOM     73  H   LEU A   9     -13.453  11.608 -14.396  0.00  0.00    +0.150 HD
BRANCH  72  74
ATOM     74  CA  LEU A   9     -13.998  12.162 -12.377  0.00  0.00    +0.149 C 
BRANCH  74  75
ATOM     75  C   LEU A   9     -14.399  11.103 -11.364  0.00  0.00    +0.241 C 
ATOM     76  O   LEU A   9     -14.540  11.402 -10.175  0.00  0.00    -0.273 OA
ATOM     77  N   ALA A  10     -14.538   9.855 -11.813  0.00  0.00    -0.297 N 
ATOM     78  H   ALA A  10     -14.444   9.666 -12.831  0.00  0.00    +0.150 HD
BRANCH  77  79
ATOM     79  CA  ALA A  10     -14.822   8.740 -10.896  0.00  0.00    +0.149 C 
ATOM     80  CB  ALA A  10     -14.954   7.424 -11.668  0.00  0.00    +0.031 C 
BRANCH  79  81
ATOM     81  C   ALA A  10     -13.739   8.628  -9.812  0.00  0.00    +0.241 C 
ATOM     82  O   ALA A  10     -14.026   8.272  -8.657  0.00  0.00    -0.273 OA
ATOM     83  N   SER A  11     -12.501   8.967 -10.175  0.00  0.00    -0.295 N 
ATOM     84  H   SER A  11     -12.321   9.283 -11.149  0.00  0.00    +0.150 HD
BRANCH  83  85
ATOM     85  CA  SER A  11     -11.381   8.900  -9.213  0.00  0.00    +0.178 C 
BRANCH  85  86
ATOM     86  C   SER A  11     -11.573   9.871  -8.058  0.00  0.00    +0.243 C 
ATOM     87  O   SER A  11     -11.060   9.650  -6.968  0.00  0.00    -0.273 OA
ATOM     88  N   LEU A  12     -12.322  10.941  -8.325  0.00  0.00    -0.297 N 
ATOM     89  H   LEU A  12     -12.758  11.011  -9.267  0.00  0.00    +0.150 HD
BRANCH  88  90
ATOM     90  CA  LEU A  12     -12.565  12.013  -7.379  0.00  0.00    +0.149 C 
BRANCH  90  91
ATOM     91  C   LEU A  12     -13.844  11.799  -6.597  0.00  0.00    +0.241 C 
ATOM     92  O   LEU A  12     -14.194  12.628  -5.758  0.00  0.00    -0.273 OA
ATOM     93  N   MET A  13     -14.533  10.690  -6.869  0.00  0.00    -0.298 N 
ATOM     94  H   MET A  13     -14.126   9.988  -7.520  0.00  0.00    +0.150 HD
BRANCH  93  95
ATOM     95  CA  MET A  13     -15.837  10.435  -6.281  0.00  0.00    +0.138 C 
BRANCH  95  96
ATOM     96  C   MET A  13     -15.880   9.248  -5.328  0.00  0.00    +0.227 C 
ATOM     97  O   MET A  13     -15.191   8.246  -5.508  0.00  0.00    -0.286 OA
ENDBRANCH  95  96
BRANCH  95  98
ATOM     98  CB  MET A  13     -16.866  10.201  -7.384  0.00  0.00    +0.039 C 
BRANCH  98  99
ATOM     99  CG  MET A  13     -17.219  11.443  -8.148  0.00  0.00    +0.060 C 
BRANCH  99 100
ATOM    100  SD  MET A  13     -18.378  11.109  -9.469  0.00  0.00    -0.139 S 
ATOM    101  CE  MET A  13     -19.122  12.744  -9.591  0.00  0.00    +0.069 C 
ENDBRANCH  99 100
ENDBRANCH  98  99
ENDBRANCH  95  98
ENDBRANCH  93  95
ENDBRANCH  90  91
BRANCH  90 102
ATOM    102  CB  LEU A  12     -12.661  13.352  -8.111  0.00  0.00    +0.029 C 
BRANCH 102 103
ATOM    103  CG  LEU A  12     -11.573  13.716  -9.127  0.00  0.00    +0.002 C 
ATOM    104  CD2 LEU A  12     -10.204  13.537  -8.535  0.00  0.00    +0.000 C 
ATOM    105  CD1 LEU A  12     -11.768  15.169  -9.609  0.00  0.00    +0.000 C 
ENDBRANCH 102 103
ENDBRANCH  90 102
ENDBRANCH  88  90
ENDBRANCH  85  86
BRANCH  85 106
ATOM    106  CB  SER A  11     -10.035   9.192  -9.895  0.00  0.00    +0.166 C 
BRANCH 106 107
ATOM    107  OG  SER A  11      -9.741   8.214 -10.878  0.00  0.00    -0.380 OA
ATOM    108  H   SER A  11      -8.871   8.424 -11.301  0.00  0.00    +0.211 HD
ENDBRANCH 106 107
ENDBRANCH  85 106
ENDBRANCH  83  85
ENDBRANCH  79  81
ENDBRANCH  77  79
ENDBRANCH  74  75
BRANCH  74 109
ATOM    109  CB  LEU A   9     -15.247  12.791 -13.001  0.00  0.00    +0.029 C 
BRANCH 109 110
ATOM    110  CG  LEU A   9     -16.290  13.360 -12.037  0.00  0.00    +0.002 C 
ATOM    111  CD2 LEU A   9     -15.660  14.504 -11.250  0.00  0.00    +0.000 C 
ATOM    112  CD1 LEU A   9     -17.528  13.829 -12.807  0.00  0.00    +0.000 C 
ENDBRANCH 109 110
ENDBRANCH  74 109
ENDBRANCH  72  74
ENDBRANCH  69  70
BRANCH  69 113
ATOM    113  CB  MET A   8     -10.208  11.309 -14.903  0.00  0.00    +0.041 C 
BRANCH 113 114
ATOM    114  CG  MET A   8      -9.444  10.608 -16.028  0.00  0.00    +0.060 C 
BRANCH 114 115
ATOM    115  SD  MET A   8      -8.035  11.585 -16.567  0.00  0.00    -0.139 S 
ATOM    116  CE  MET A   8      -6.947  11.432 -15.158  0.00  0.00    +0.069 C 
ENDBRANCH 114 115
ENDBRANCH 113 114
ENDBRANCH  69 113
ENDBRANCH  67  69
ENDBRANCH  64  65
BRANCH  64 117
ATOM    117  CB  THR A   7     -12.613   7.637 -17.231  0.00  0.00    +0.137 C 
ATOM    118  CG2 THR A   7     -11.588   6.655 -16.643  0.00  0.00    +0.034 C 
BRANCH 117 119
ATOM    119  OG1 THR A   7     -13.369   6.983 -18.251  0.00  0.00    -0.382 OA
ATOM    120  HG1 THR A   7     -14.005   7.627 -18.653  0.00  0.00    +0.210 HD
ENDBRANCH 117 119
ENDBRANCH  64 117
ENDBRANCH   3  64
TORSDOF 53
REMARK  Name = ../refined-set-2016/4a4w/4a4w_pocket.pdb
REMARK  248 active torsions:
REMARK  status: ('A' for Active; 'I' for Inactive)
REMARK    1  A    between atoms: _1  and  _3
REMARK    2  A    between atoms: _3  and  _4
REMARK    3  A    between atoms: _3  and  _6
REMARK    4  A    between atoms: _6  and  _7
REMARK    5  A    between atoms: _14  and  _15
REMARK    6  A    between atoms: _20  and  _22
REMARK    7  A    between atoms: _22  and  _23
REMARK    8  A    between atoms: _22  and  _25
REMARK    9  A    between atoms: _25  and  _26
REMARK   10  A    between atoms: _29  and  _31
REMARK   11  A    between atoms: _31  and  _32
REMARK   12  A    between atoms: _31  and  _34
REMARK   13  A    between atoms: _34  and  _35
REMARK   14  A    between atoms: _38  and  _40
REMARK   15  A    between atoms: _40  and  _41
REMARK   16  A    between atoms: _40  and  _43
REMARK   17  A    between atoms: _43  and  _44
REMARK   18  A    between atoms: _46  and  _48
REMARK   19  A    between atoms: _48  and  _49
REMARK   20  A    between atoms: _48  and  _51
REMARK   21  A    between atoms: _51  and  _52
REMARK   22  A    between atoms: _55  and  _57
REMARK   23  A    between atoms: _57  and  _58
REMARK   24  A    between atoms: _57  and  _60
REMARK   25  A    between atoms: _60  and  _61
REMARK   26  A    between atoms: _61  and  _62
REMARK   27  A    between atoms: _64  and  _66
REMARK   28  A    between atoms: _66  and  _67
REMARK   29  A    between atoms: _69  and  _71
REMARK   30  A    between atoms: _71  and  _72
REMARK   31  A    between atoms: _71  and  _74
REMARK   32  A    between atoms: _74  and  _75
REMARK   33  A    between atoms: _75  and  _76
REMARK   34  A    between atoms: _79  and  _81
REMARK   35  A    between atoms: _81  and  _82
REMARK   36  A    between atoms: _81  and  _84
REMARK   37  A    between atoms: _84  and  _85
REMARK   38  A    between atoms: _88  and  _90
REMARK   39  A    between atoms: _90  and  _91
REMARK   40  A    between atoms: _90  and  _93
REMARK   41  A    between atoms: _93  and  _94
REMARK   42  A    between atoms: _94  and  _95
REMARK   43  A    between atoms: _98  and  _100
REMARK   44  A    between atoms: _100  and  _101
REMARK   45  A    between atoms: _100  and  _103
REMARK   46  A    between atoms: _106  and  _108
REMARK   47  A    between atoms: _108  and  _109
REMARK   48  A    between atoms: _112  and  _114
REMARK   49  A    between atoms: _114  and  _115
REMARK   50  A    between atoms: _114  and  _117
REMARK   51  A    between atoms: _117  and  _118
REMARK   52  A    between atoms: _121  and  _123
REMARK   53  A    between atoms: _123  and  _124
REMARK   54  A    between atoms: _123  and  _126
REMARK   55  A    between atoms: _126  and  _127
REMARK   56  A    between atoms: _127  and  _128
REMARK   57  A    between atoms: _128  and  _129
REMARK   58  A    between atoms: _138  and  _140
REMARK   59  A    between atoms: _140  and  _141
REMARK   60  A    between atoms: _140  and  _143
REMARK   61  A    between atoms: _143  and  _144
REMARK   62  A    between atoms: _147  and  _149
REMARK   63  A    between atoms: _149  and  _150
REMARK   64  A    between atoms: _149  and  _152
REMARK   65  A    between atoms: _152  and  _153
REMARK   66  A    between atoms: _159  and  _161
REMARK   67  A    between atoms: _161  and  _162
REMARK   68  A    between atoms: _161  and  _164
REMARK   69  A    between atoms: _164  and  _165
REMARK   70  A    between atoms: _165  and  _166
REMARK   71  A    between atoms: _171  and  _173
REMARK   72  A    between atoms: _173  and  _174
REMARK   73  A    between atoms: _176  and  _178
REMARK   74  A    between atoms: _178  and  _179
REMARK   75  A    between atoms: _178  and  _181
REMARK   76  A    between atoms: _183  and  _185
REMARK   77  A    between atoms: _185  and  _186
REMARK   78  A    between atoms: _185  and  _188
REMARK   79  A    between atoms: _188  and  _189
REMARK   80  A    between atoms: _189  and  _190
REMARK   81  A    between atoms: _195  and  _197
REMARK   82  A    between atoms: _197  and  _198
REMARK   83  A    between atoms: _197  and  _200
REMARK   84  A    between atoms: _200  and  _201
REMARK   85  A    between atoms: _207  and  _209
REMARK   86  A    between atoms: _209  and  _210
REMARK   87  A    between atoms: _209  and  _212
REMARK   88  A    between atoms: _212  and  _213
REMARK   89  A    between atoms: _213  and  _214
REMARK   90  A    between atoms: _214  and  _215
REMARK   91  A    between atoms: _224  and  _226
REMARK   92  A    between atoms: _226  and  _227
REMARK   93  A    between atoms: _226  and  _229
REMARK   94  A    between atoms: _229  and  _230
REMARK   95  A    between atoms: _232  and  _234
REMARK   96  A    between atoms: _234  and  _235
REMARK   97  A    between atoms: _234  and  _237
REMARK   98  A    between atoms: _240  and  _242
REMARK   99  A    between atoms: _242  and  _243
REMARK  100  A    between atoms: _242  and  _245
REMARK  101  A    between atoms: _245  and  _246
REMARK  102  A    between atoms: _246  and  _247
REMARK  103  A    between atoms: _250  and  _252
REMARK  104  A    between atoms: _252  and  _253
REMARK  105  A    between atoms: _256  and  _258
REMARK  106  A    between atoms: _258  and  _259
REMARK  107  A    between atoms: _258  and  _261
REMARK  108  A    between atoms: _264  and  _266
REMARK  109  A    between atoms: _266  and  _267
REMARK  110  A    between atoms: _266  and  _269
REMARK  111  A    between atoms: _269  and  _270
REMARK  112  A    between atoms: _270  and  _271
REMARK  113  A    between atoms: _274  and  _276
REMARK  114  A    between atoms: _276  and  _277
REMARK  115  A    between atoms: _276  and  _279
REMARK  116  A    between atoms: _279  and  _280
REMARK  117  A    between atoms: _283  and  _285
REMARK  118  A    between atoms: _285  and  _286
REMARK  119  A    between atoms: _285  and  _288
REMARK  120  A    between atoms: _291  and  _293
REMARK  121  A    between atoms: _293  and  _294
REMARK  122  A    between atoms: _293  and  _296
REMARK  123  A    between atoms: _296  and  _297
REMARK  124  A    between atoms: _302  and  _304
REMARK  125  A    between atoms: _304  and  _305
REMARK  126  A    between atoms: _304  and  _307
REMARK  127  A    between atoms: _307  and  _308
REMARK  128  A    between atoms: _308  and  _309
REMARK  129  A    between atoms: _312  and  _314
REMARK  130  A    between atoms: _314  and  _315
REMARK  131  A    between atoms: _314  and  _317
REMARK  132  A    between atoms: _317  and  _318
REMARK  133  A    between atoms: _321  and  _323
REMARK  134  A    between atoms: _323  and  _324
REMARK  135  A    between atoms: _323  and  _326
REMARK  136  A    between atoms: _326  and  _327
REMARK  137  A    between atoms: _330  and  _332
REMARK  138  A    between atoms: _332  and  _333
REMARK  139  A    between atoms: _332  and  _335
REMARK  140  A    between atoms: _335  and  _336
REMARK  141  A    between atoms: _341  and  _342
REMARK  142  A    between atoms: _344  and  _346
REMARK  143  A    between atoms: _346  and  _347
REMARK  144  A    between atoms: _346  and  _349
REMARK  145  A    between atoms: _349  and  _350
REMARK  146  A    between atoms: _353  and  _355
REMARK  147  A    between atoms: _355  and  _356
REMARK  148  A    between atoms: _355  and  _358
REMARK  149  A    between atoms: _358  and  _359
REMARK  150  A    between atoms: _359  and  _360
REMARK  151  A    between atoms: _362  and  _364
REMARK  152  A    between atoms: _364  and  _365
REMARK  153  A    between atoms: _364  and  _367
REMARK  154  A    between atoms: _367  and  _368
REMARK  155  A    between atoms: _371  and  _373
REMARK  156  A    between atoms: _373  and  _374
REMARK  157  A    between atoms: _377  and  _379
REMARK  158  A    between atoms: _379  and  _380
REMARK  159  A    between atoms: _379  and  _382
REMARK  160  A    between atoms: _382  and  _383
REMARK  161  A    between atoms: _385  and  _387
REMARK  162  A    between atoms: _387  and  _388
REMARK  163  A    between atoms: _387  and  _390
REMARK  164  A    between atoms: _390  and  _391
REMARK  165  A    between atoms: _394  and  _396
REMARK  166  A    between atoms: _396  and  _397
REMARK  167  A    between atoms: _396  and  _399
REMARK  168  A    between atoms: _399  and  _400
REMARK  169  A    between atoms: _400  and  _401
REMARK  170  A    between atoms: _403  and  _405
REMARK  171  A    between atoms: _405  and  _406
REMARK  172  A    between atoms: _405  and  _408
REMARK  173  A    between atoms: _411  and  _413
REMARK  174  A    between atoms: _413  and  _414
REMARK  175  A    between atoms: _413  and  _416
REMARK  176  A    between atoms: _416  and  _417
REMARK  177  A    between atoms: _420  and  _422
REMARK  178  A    between atoms: _422  and  _423
REMARK  179  A    between atoms: _422  and  _425
REMARK  180  A    between atoms: _425  and  _426
REMARK  181  A    between atoms: _429  and  _431
REMARK  182  A    between atoms: _431  and  _432
REMARK  183  A    between atoms: _431  and  _434
REMARK  184  A    between atoms: _434  and  _435
REMARK  185  A    between atoms: _437  and  _439
REMARK  186  A    between atoms: _439  and  _440
REMARK  187  A    between atoms: _439  and  _442
REMARK  188  A    between atoms: _442  and  _443
REMARK  189  A    between atoms: _443  and  _444
REMARK  190  A    between atoms: _447  and  _449
REMARK  191  A    between atoms: _449  and  _450
REMARK  192  A    between atoms: _452  and  _454
REMARK  193  A    between atoms: _454  and  _455
REMARK  194  A    between atoms: _454  and  _457
REMARK  195  A    between atoms: _457  and  _458
REMARK  196  A    between atoms: _458  and  _459
REMARK  197  A    between atoms: _464  and  _466
REMARK  198  A    between atoms: _466  and  _467
REMARK  199  A    between atoms: _469  and  _471
REMARK  200  A    between atoms: _471  and  _472
REMARK  201  A    between atoms: _471  and  _474
REMARK  202  A    between atoms: _474  and  _475
REMARK  203  A    between atoms: _475  and  _476
REMARK  204  A    between atoms: _478  and  _480
REMARK  205  A    between atoms: _480  and  _481
REMARK  206  A    between atoms: _480  and  _483
REMARK  207  A    between atoms: _483  and  _484
REMARK  208  A    between atoms: _487  and  _489
REMARK  209  A    between atoms: _489  and  _490
REMARK  210  A    between atoms: _489  and  _492
REMARK  211  A    between atoms: _492  and  _493
REMARK  212  A    between atoms: _499  and  _501
REMARK  213  A    between atoms: _501  and  _502
REMARK  214  A    between atoms: _501  and  _504
REMARK  215  A    between atoms: _504  and  _505
REMARK  216  A    between atoms: _508  and  _510
REMARK  217  A    between atoms: _510  and  _511
REMARK  218  A    between atoms: _510  and  _513
REMARK  219  A    between atoms: _513  and  _514
REMARK  220  A    between atoms: _517  and  _519
REMARK  221  A    between atoms: _519  and  _520
REMARK  222  A    between atoms: _519  and  _522
REMARK  223  A    between atoms: _522  and  _523
REMARK  224  A    between atoms: _529  and  _531
REMARK  225  A    between atoms: _531  and  _532
REMARK  226  A    between atoms: _531  and  _534
REMARK  227  A    between atoms: _534  and  _535
REMARK  228  A    between atoms: _535  and  _536
REMARK  229  A    between atoms: _538  and  _540
REMARK  230  A    between atoms: _540  and  _541
REMARK  231  A    between atoms: _540  and  _543
REMARK  232  A    between atoms: _543  and  _544
REMARK  233  A    between atoms: _544  and  _545
REMARK  234  A    between atoms: _545  and  _546
REMARK  235  A    between atoms: _546  and  _547
REMARK  236  A    between atoms: _551  and  _553
REMARK  237  A    between atoms: _553  and  _554
REMARK  238  A    between atoms: _553  and  _556
REMARK  239  A    between atoms: _556  and  _557
REMARK  240  A    between atoms: _563  and  _565
REMARK  241  A    between atoms: _565  and  _566
REMARK  242  A    between atoms: _565  and  _568
REMARK  243  A    between atoms: _568  and  _569
REMARK  244  A    between atoms: _574  and  _576
REMARK  245  A    between atoms: _576  and  _577
REMARK  246  A    between atoms: _576  and  _579
REMARK  247  A    between atoms: _579  and  _580
REMARK  248  A    between atoms: _585  and  _586
REMARK                            x       y       z     vdW  Elec       q    Type
REMARK                         _______ _______ _______ _____ _____    ______ ____
ROOT
ATOM      1  C   SER A   4      -9.488  21.841  -5.982  0.00  0.00    +0.243 C 
ATOM      2  O   SER A   4      -8.972  22.037  -4.875  0.00  0.00    -0.273 OA
ATOM      3  N   GLU A   5      -9.006  21.003  -6.902  0.00  0.00    -0.297 N 
ATOM      4  H   GLU A   5      -9.525  20.890  -7.796  0.00  0.00    +0.150 HD
ENDROOT
BRANCH   3   5
ATOM      5  CA  GLU A   5      -7.775  20.236  -6.701  0.00  0.00    +0.149 C 
BRANCH   5   6
ATOM      6  C   GLU A   5      -7.734  19.403  -5.408  0.00  0.00    +0.241 C 
ATOM      7  O   GLU A   5      -6.663  19.192  -4.849  0.00  0.00    -0.273 OA
ATOM      8  N   GLY A   6      -8.887  18.955  -4.926  0.00  0.00    -0.295 N 
ATOM      9  H   GLY A   6      -9.769  19.166  -5.435  0.00  0.00    +0.150 HD
BRANCH   8  10
ATOM     10  CA  GLY A   6      -8.941  18.175  -3.699  0.00  0.00    +0.176 C 
BRANCH  10  11
ATOM     11  C   GLY A   6      -9.036  19.010  -2.429  0.00  0.00    +0.243 C 
ATOM     12  O   GLY A   6      -9.126  18.453  -1.341  0.00  0.00    -0.273 OA
ATOM     13  N   GLN A   7      -9.017  20.337  -2.551  0.00  0.00    -0.297 N 
ATOM     14  H   GLN A   7      -8.914  20.763  -3.494  0.00  0.00    +0.150 HD
BRANCH  13  15
ATOM     15  CA  GLN A   7      -9.139  21.206  -1.373  0.00  0.00    +0.149 C 
BRANCH  15  16
ATOM     16  C   GLN A   7     -10.532  21.137  -0.757  0.00  0.00    +0.241 C 
ATOM     17  O   GLN A   7     -10.703  21.398   0.439  0.00  0.00    -0.273 OA
ATOM     18  N   GLY A   8     -11.522  20.825  -1.587  0.00  0.00    -0.296 N 
ATOM     19  H   GLY A   8     -11.292  20.565  -2.567  0.00  0.00    +0.150 HD
BRANCH  18  20
ATOM     20  CA  GLY A   8     -12.916  20.834  -1.173  0.00  0.00    +0.163 C 
BRANCH  20  21
ATOM     21  C   GLY A   8     -13.568  19.516  -1.519  0.00  0.00    +0.229 C 
ATOM     22  O   GLY A   8     -13.043  18.735  -2.320  0.00  0.00    -0.286 OA
ENDBRANCH  20  21
ENDBRANCH  18  20
ENDBRANCH  15  16
BRANCH  15  23
ATOM     23  CB  GLN A   7      -8.884  22.656  -1.723  0.00  0.00    +0.039 C 
BRANCH  23  24
ATOM     24  CG  GLN A   7      -7.481  23.003  -2.140  0.00  0.00    +0.087 C 
BRANCH  24  25
ATOM     25  CD  GLN A   7      -7.441  24.404  -2.702  0.00  0.00    +0.219 C 
ATOM     26  NE2 GLN A   7      -7.643  25.395  -1.836  0.00  0.00    -0.329 N 
ATOM     27 HE21 GLN A   7      -7.770  25.185  -0.825  0.00  0.00    +0.145 HD
ATOM     28 HE22 GLN A   7      -7.673  26.379  -2.170  0.00  0.00    +0.145 HD
ATOM     29  OE1 GLN A   7      -7.284  24.598  -3.911  0.00  0.00    -0.275 OA
ENDBRANCH  24  25
ENDBRANCH  23  24
ENDBRANCH  15  23
ENDBRANCH  13  15
ENDBRANCH  10  11
ENDBRANCH   8  10
ENDBRANCH   5   6
BRANCH   5  30
ATOM     30  CB  GLU A   5      -6.552  21.169  -6.763  0.00  0.00    +0.041 C 
BRANCH  30  31
ATOM     31  CG  GLU A   5      -6.421  21.944  -8.067  0.00  0.00    +0.116 C 
BRANCH  31  32
ATOM     32  CD  GLU A   5      -5.143  22.754  -8.126  0.00  0.00    +0.365 C 
ATOM     33  OE2 GLU A   5      -5.232  23.994  -8.035  0.00  0.00    -0.246 OA
ATOM     34  OE1 GLU A   5      -4.052  22.148  -8.241  0.00  0.00    -0.246 OA
ENDBRANCH  31  32
ENDBRANCH  30  31
ENDBRANCH   5  30
ENDBRANCH   3   5
BRANCH   1  35
ATOM     35  CA  SER A   4     -10.776  22.558  -6.378  0.00  0.00    +0.178 C 
BRANCH  35  38
ATOM     36  C   ILE A   3     -12.138  20.663  -5.663  0.00  0.00    +0.241 C 
ATOM     37  O   ILE A   3     -11.487  20.486  -4.615  0.00  0.00    -0.273 OA
ATOM     38  N   SER A   4     -11.858  21.605  -6.559  0.00  0.00    -0.295 N 
ATOM     39  H   SER A   4     -12.435  21.662  -7.422  0.00  0.00    +0.150 HD
BRANCH  36  40
ATOM     40  CA  ILE A   3     -13.332  19.796  -6.003  0.00  0.00    +0.149 C 
BRANCH  40  42
ATOM     41  C   LEU A   2     -13.499  17.391  -5.643  0.00  0.00    +0.241 C 
ATOM     42  N   ILE A   3     -13.357  18.622  -5.159  0.00  0.00    -0.297 N 
ATOM     43  H   ILE A   3     -13.260  18.745  -4.131  0.00  0.00    +0.150 HD
ATOM     44  O   LEU A   2     -13.659  17.135  -6.846  0.00  0.00    -0.273 OA
BRANCH  41  45
ATOM     45  CA  LEU A   2     -13.471  16.289  -4.610  0.00  0.00    +0.149 C 
BRANCH  45  48
ATOM     46  C   VAL A   1     -15.830  15.703  -4.713  0.00  0.00    +0.238 C 
ATOM     47  O   VAL A   1     -16.189  16.791  -4.242  0.00  0.00    -0.274 OA
ATOM     48  N   LEU A   2     -14.556  15.344  -4.833  0.00  0.00    -0.297 N 
ATOM     49  H   LEU A   2     -14.328  14.363  -5.093  0.00  0.00    +0.150 HD
BRANCH  46  50
ATOM     50  CA  VAL A   1     -16.843  14.680  -5.188  0.00  0.00    +0.145 C 
BRANCH  50  51
ATOM     51  CB  VAL A   1     -17.383  15.053  -6.604  0.00  0.00    +0.025 C 
ATOM     52  CG2 VAL A   1     -18.235  16.349  -6.562  0.00  0.00    +0.002 C 
ATOM     53  CG1 VAL A   1     -16.263  15.166  -7.612  0.00  0.00    +0.002 C 
ENDBRANCH  50  51
BRANCH  50  54
ATOM     54  N   VAL A   1     -17.936  14.532  -4.242  0.00  0.00    -0.238 NA
ATOM     55  H   VAL A   1     -18.358  15.383  -3.819  0.00  0.00    +0.142 HD
ENDBRANCH  50  54
ENDBRANCH  46  50
ENDBRANCH  45  48
BRANCH  45  56
ATOM     56  CB  LEU A   2     -12.120  15.582  -4.647  0.00  0.00    +0.029 C 
BRANCH  56  57
ATOM     57  CG  LEU A   2     -11.834  14.681  -3.452  0.00  0.00    +0.002 C 
ATOM     58  CD2 LEU A   2     -11.674  15.496  -2.171  0.00  0.00    +0.000 C 
ATOM     59  CD1 LEU A   2     -10.582  13.905  -3.747  0.00  0.00    +0.000 C 
ENDBRANCH  56  57
ENDBRANCH  45  56
ENDBRANCH  41  45
ENDBRANCH  40  42
BRANCH  40  60
ATOM     60  CB  ILE A   3     -14.640  20.637  -5.883  0.00  0.00    +0.027 C 
ATOM     61  CG2 ILE A   3     -15.860  19.801  -6.275  0.00  0.00    +0.002 C 
BRANCH  60  62
ATOM     62  CG1 ILE A   3     -14.794  21.214  -4.473  0.00  0.00    +0.002 C 
ATOM     63  CD1 ILE A   3     -15.733  22.412  -4.412  0.00  0.00    +0.000 C 
ENDBRANCH  60  62
ENDBRANCH  40  60
ENDBRANCH  36  40
ENDBRANCH  35  38
BRANCH  35  64
ATOM     64  CB  SER A   4     -11.183  23.611  -5.335  0.00  0.00    +0.166 C 
BRANCH  64  65
ATOM     65  OG  SER A   4     -10.224  24.639  -5.280  0.00  0.00    -0.380 OA
ATOM     66  H   SER A   4     -10.155  25.072  -6.168  0.00  0.00    +0.211 HD
ENDBRANCH  64  65
ENDBRANCH  35  64
ENDBRANCH   1  35
TORSDOF 29
REMARK  Name = ../refined-set-2016/4a4w/4a4w_pocket.pdb
REMARK  248 active torsions:
REMARK  status: ('A' for Active; 'I' for Inactive)
REMARK    1  A    between atoms: _1  and  _3
REMARK    2  A    between atoms: _3  and  _4
REMARK    3  A    between atoms: _3  and  _6
REMARK    4  A    between atoms: _6  and  _7
REMARK    5  A    between atoms: _14  and  _15
REMARK    6  A    between atoms: _20  and  _22
REMARK    7  A    between atoms: _22  and  _23
REMARK    8  A    between atoms: _22  and  _25
REMARK    9  A    between atoms: _25  and  _26
REMARK   10  A    between atoms: _29  and  _31
REMARK   11  A    between atoms: _31  and  _32
REMARK   12  A    between atoms: _31  and  _34
REMARK   13  A    between atoms: _34  and  _35
REMARK   14  A    between atoms: _38  and  _40
REMARK   15  A    between atoms: _40  and  _41
REMARK   16  A    between atoms: _40  and  _43
REMARK   17  A    between atoms: _43  and  _44
REMARK   18  A    between atoms: _46  and  _48
REMARK   19  A    between atoms: _48  and  _49
REMARK   20  A    between atoms: _48  and  _51
REMARK   21  A    between atoms: _51  and  _52
REMARK   22  A    between atoms: _55  and  _57
REMARK   23  A    between atoms: _57  and  _58
REMARK   24  A    between atoms: _57  and  _60
REMARK   25  A    between atoms: _60  and  _61
REMARK   26  A    between atoms: _61  and  _62
REMARK   27  A    between atoms: _64  and  _66
REMARK   28  A    between atoms: _66  and  _67
REMARK   29  A    between atoms: _69  and  _71
REMARK   30  A    between atoms: _71  and  _72
REMARK   31  A    between atoms: _71  and  _74
REMARK   32  A    between atoms: _74  and  _75
REMARK   33  A    between atoms: _75  and  _76
REMARK   34  A    between atoms: _79  and  _81
REMARK   35  A    between atoms: _81  and  _82
REMARK   36  A    between atoms: _81  and  _84
REMARK   37  A    between atoms: _84  and  _85
REMARK   38  A    between atoms: _88  and  _90
REMARK   39  A    between atoms: _90  and  _91
REMARK   40  A    between atoms: _90  and  _93
REMARK   41  A    between atoms: _93  and  _94
REMARK   42  A    between atoms: _94  and  _95
REMARK   43  A    between atoms: _98  and  _100
REMARK   44  A    between atoms: _100  and  _101
REMARK   45  A    between atoms: _100  and  _103
REMARK   46  A    between atoms: _106  and  _108
REMARK   47  A    between atoms: _108  and  _109
REMARK   48  A    between atoms: _112  and  _114
REMARK   49  A    between atoms: _114  and  _115
REMARK   50  A    between atoms: _114  and  _117
REMARK   51  A    between atoms: _117  and  _118
REMARK   52  A    between atoms: _121  and  _123
REMARK   53  A    between atoms: _123  and  _124
REMARK   54  A    between atoms: _123  and  _126
REMARK   55  A    between atoms: _126  and  _127
REMARK   56  A    between atoms: _127  and  _128
REMARK   57  A    between atoms: _128  and  _129
REMARK   58  A    between atoms: _138  and  _140
REMARK   59  A    between atoms: _140  and  _141
REMARK   60  A    between atoms: _140  and  _143
REMARK   61  A    between atoms: _143  and  _144
REMARK   62  A    between atoms: _147  and  _149
REMARK   63  A    between atoms: _149  and  _150
REMARK   64  A    between atoms: _149  and  _152
REMARK   65  A    between atoms: _152  and  _153
REMARK   66  A    between atoms: _159  and  _161
REMARK   67  A    between atoms: _161  and  _162
REMARK   68  A    between atoms: _161  and  _164
REMARK   69  A    between atoms: _164  and  _165
REMARK   70  A    between atoms: _165  and  _166
REMARK   71  A    between atoms: _171  and  _173
REMARK   72  A    between atoms: _173  and  _174
REMARK   73  A    between atoms: _176  and  _178
REMARK   74  A    between atoms: _178  and  _179
REMARK   75  A    between atoms: _178  and  _181
REMARK   76  A    between atoms: _183  and  _185
REMARK   77  A    between atoms: _185  and  _186
REMARK   78  A    between atoms: _185  and  _188
REMARK   79  A    between atoms: _188  and  _189
REMARK   80  A    between atoms: _189  and  _190
REMARK   81  A    between atoms: _195  and  _197
REMARK   82  A    between atoms: _197  and  _198
REMARK   83  A    between atoms: _197  and  _200
REMARK   84  A    between atoms: _200  and  _201
REMARK   85  A    between atoms: _207  and  _209
REMARK   86  A    between atoms: _209  and  _210
REMARK   87  A    between atoms: _209  and  _212
REMARK   88  A    between atoms: _212  and  _213
REMARK   89  A    between atoms: _213  and  _214
REMARK   90  A    between atoms: _214  and  _215
REMARK   91  A    between atoms: _224  and  _226
REMARK   92  A    between atoms: _226  and  _227
REMARK   93  A    between atoms: _226  and  _229
REMARK   94  A    between atoms: _229  and  _230
REMARK   95  A    between atoms: _232  and  _234
REMARK   96  A    between atoms: _234  and  _235
REMARK   97  A    between atoms: _234  and  _237
REMARK   98  A    between atoms: _240  and  _242
REMARK   99  A    between atoms: _242  and  _243
REMARK  100  A    between atoms: _242  and  _245
REMARK  101  A    between atoms: _245  and  _246
REMARK  102  A    between atoms: _246  and  _247
REMARK  103  A    between atoms: _250  and  _252
REMARK  104  A    between atoms: _252  and  _253
REMARK  105  A    between atoms: _256  and  _258
REMARK  106  A    between atoms: _258  and  _259
REMARK  107  A    between atoms: _258  and  _261
REMARK  108  A    between atoms: _264  and  _266
REMARK  109  A    between atoms: _266  and  _267
REMARK  110  A    between atoms: _266  and  _269
REMARK  111  A    between atoms: _269  and  _270
REMARK  112  A    between atoms: _270  and  _271
REMARK  113  A    between atoms: _274  and  _276
REMARK  114  A    between atoms: _276  and  _277
REMARK  115  A    between atoms: _276  and  _279
REMARK  116  A    between atoms: _279  and  _280
REMARK  117  A    between atoms: _283  and  _285
REMARK  118  A    between atoms: _285  and  _286
REMARK  119  A    between atoms: _285  and  _288
REMARK  120  A    between atoms: _291  and  _293
REMARK  121  A    between atoms: _293  and  _294
REMARK  122  A    between atoms: _293  and  _296
REMARK  123  A    between atoms: _296  and  _297
REMARK  124  A    between atoms: _302  and  _304
REMARK  125  A    between atoms: _304  and  _305
REMARK  126  A    between atoms: _304  and  _307
REMARK  127  A    between atoms: _307  and  _308
REMARK  128  A    between atoms: _308  and  _309
REMARK  129  A    between atoms: _312  and  _314
REMARK  130  A    between atoms: _314  and  _315
REMARK  131  A    between atoms: _314  and  _317
REMARK  132  A    between atoms: _317  and  _318
REMARK  133  A    between atoms: _321  and  _323
REMARK  134  A    between atoms: _323  and  _324
REMARK  135  A    between atoms: _323  and  _326
REMARK  136  A    between atoms: _326  and  _327
REMARK  137  A    between atoms: _330  and  _332
REMARK  138  A    between atoms: _332  and  _333
REMARK  139  A    between atoms: _332  and  _335
REMARK  140  A    between atoms: _335  and  _336
REMARK  141  A    between atoms: _341  and  _342
REMARK  142  A    between atoms: _344  and  _346
REMARK  143  A    between atoms: _346  and  _347
REMARK  144  A    between atoms: _346  and  _349
REMARK  145  A    between atoms: _349  and  _350
REMARK  146  A    between atoms: _353  and  _355
REMARK  147  A    between atoms: _355  and  _356
REMARK  148  A    between atoms: _355  and  _358
REMARK  149  A    between atoms: _358  and  _359
REMARK  150  A    between atoms: _359  and  _360
REMARK  151  A    between atoms: _362  and  _364
REMARK  152  A    between atoms: _364  and  _365
REMARK  153  A    between atoms: _364  and  _367
REMARK  154  A    between atoms: _367  and  _368
REMARK  155  A    between atoms: _371  and  _373
REMARK  156  A    between atoms: _373  and  _374
REMARK  157  A    between atoms: _377  and  _379
REMARK  158  A    between atoms: _379  and  _380
REMARK  159  A    between atoms: _379  and  _382
REMARK  160  A    between atoms: _382  and  _383
REMARK  161  A    between atoms: _385  and  _387
REMARK  162  A    between atoms: _387  and  _388
REMARK  163  A    between atoms: _387  and  _390
REMARK  164  A    between atoms: _390  and  _391
REMARK  165  A    between atoms: _394  and  _396
REMARK  166  A    between atoms: _396  and  _397
REMARK  167  A    between atoms: _396  and  _399
REMARK  168  A    between atoms: _399  and  _400
REMARK  169  A    between atoms: _400  and  _401
REMARK  170  A    between atoms: _403  and  _405
REMARK  171  A    between atoms: _405  and  _406
REMARK  172  A    between atoms: _405  and  _408
REMARK  173  A    between atoms: _411  and  _413
REMARK  174  A    between atoms: _413  and  _414
REMARK  175  A    between atoms: _413  and  _416
REMARK  176  A    between atoms: _416  and  _417
REMARK  177  A    between atoms: _420  and  _422
REMARK  178  A    between atoms: _422  and  _423
REMARK  179  A    between atoms: _422  and  _425
REMARK  180  A    between atoms: _425  and  _426
REMARK  181  A    between atoms: _429  and  _431
REMARK  182  A    between atoms: _431  and  _432
REMARK  183  A    between atoms: _431  and  _434
REMARK  184  A    between atoms: _434  and  _435
REMARK  185  A    between atoms: _437  and  _439
REMARK  186  A    between atoms: _439  and  _440
REMARK  187  A    between atoms: _439  and  _442
REMARK  188  A    between atoms: _442  and  _443
REMARK  189  A    between atoms: _443  and  _444
REMARK  190  A    between atoms: _447  and  _449
REMARK  191  A    between atoms: _449  and  _450
REMARK  192  A    between atoms: _452  and  _454
REMARK  193  A    between atoms: _454  and  _455
REMARK  194  A    between atoms: _454  and  _457
REMARK  195  A    between atoms: _457  and  _458
REMARK  196  A    between atoms: _458  and  _459
REMARK  197  A    between atoms: _464  and  _466
REMARK  198  A    between atoms: _466  and  _467
REMARK  199  A    between atoms: _469  and  _471
REMARK  200  A    between atoms: _471  and  _472
REMARK  201  A    between atoms: _471  and  _474
REMARK  202  A    between atoms: _474  and  _475
REMARK  203  A    between atoms: _475  and  _476
REMARK  204  A    between atoms: _478  and  _480
REMARK  205  A    between atoms: _480  and  _481
REMARK  206  A    between atoms: _480  and  _483
REMARK  207  A    between atoms: _483  and  _484
REMARK  208  A    between atoms: _487  and  _489
REMARK  209  A    between atoms: _489  and  _490
REMARK  210  A    between atoms: _489  and  _492
REMARK  211  A    between atoms: _492  and  _493
REMARK  212  A    between atoms: _499  and  _501
REMARK  213  A    between atoms: _501  and  _502
REMARK  214  A    between atoms: _501  and  _504
REMARK  215  A    between atoms: _504  and  _505
REMARK  216  A    between atoms: _508  and  _510
REMARK  217  A    between atoms: _510  and  _511
REMARK  218  A    between atoms: _510  and  _513
REMARK  219  A    between atoms: _513  and  _514
REMARK  220  A    between atoms: _517  and  _519
REMARK  221  A    between atoms: _519  and  _520
REMARK  222  A    between atoms: _519  and  _522
REMARK  223  A    between atoms: _522  and  _523
REMARK  224  A    between atoms: _529  and  _531
REMARK  225  A    between atoms: _531  and  _532
REMARK  226  A    between atoms: _531  and  _534
REMARK  227  A    between atoms: _534  and  _535
REMARK  228  A    between atoms: _535  and  _536
REMARK  229  A    between atoms: _538  and  _540
REMARK  230  A    between atoms: _540  and  _541
REMARK  231  A    between atoms: _540  and  _543
REMARK  232  A    between atoms: _543  and  _544
REMARK  233  A    between atoms: _544  and  _545
REMARK  234  A    between atoms: _545  and  _546
REMARK  235  A    between atoms: _546  and  _547
REMARK  236  A    between atoms: _551  and  _553
REMARK  237  A    between atoms: _553  and  _554
REMARK  238  A    between atoms: _553  and  _556
REMARK  239  A    between atoms: _556  and  _557
REMARK  240  A    between atoms: _563  and  _565
REMARK  241  A    between atoms: _565  and  _566
REMARK  242  A    between atoms: _565  and  _568
REMARK  243  A    between atoms: _568  and  _569
REMARK  244  A    between atoms: _574  and  _576
REMARK  245  A    between atoms: _576  and  _577
REMARK  246  A    between atoms: _576  and  _579
REMARK  247  A    between atoms: _579  and  _580
REMARK  248  A    between atoms: _585  and  _586
REMARK                            x       y       z     vdW  Elec       q    Type
REMARK                         _______ _______ _______ _____ _____    ______ ____
ROOT
ATOM      1  C   MET A   1     -19.924  17.509  -2.465  0.00  0.00    +0.238 C 
ATOM      2  N   THR A   2     -20.897  17.492  -1.559  0.00  0.00    -0.296 N 
ATOM      3  H   THR A   2     -21.076  18.338  -0.981  0.00  0.00    +0.150 HD
ATOM      4  O   MET A   1     -19.725  16.586  -3.265  0.00  0.00    -0.274 OA
ENDROOT
BRANCH   1   5
ATOM      5  CA  MET A   1     -19.038  18.740  -2.476  0.00  0.00    +0.146 C 
BRANCH   5   6
ATOM      6  N   MET A   1     -17.633  18.342  -2.329  0.00  0.00    -0.238 NA
ATOM      7  H   MET A   1     -17.162  17.862  -3.122  0.00  0.00    +0.142 HD
ENDBRANCH   5   6
BRANCH   5   8
ATOM      8  CB  MET A   1     -19.255  19.530  -3.774  0.00  0.00    +0.038 C 
BRANCH   8   9
ATOM      9  CG  MET A   1     -20.664  20.093  -3.933  0.00  0.00    +0.060 C 
BRANCH   9  10
ATOM     10  SD  MET A   1     -20.736  21.277  -5.301  0.00  0.00    -0.139 S 
ATOM     11  CE  MET A   1     -19.850  22.660  -4.585  0.00  0.00    +0.069 C 
ENDBRANCH   9  10
ENDBRANCH   8   9
ENDBRANCH   5   8
ENDBRANCH   1   5
BRANCH   2  12
ATOM     12  CA  THR A   2     -21.716  16.301  -1.366  0.00  0.00    +0.164 C 
BRANCH  12  13
ATOM     13  CB  THR A   2     -22.503  16.332  -0.023  0.00  0.00    +0.136 C 
ATOM     14  CG2 THR A   2     -21.548  16.561   1.141  0.00  0.00    +0.034 C 
BRANCH  13  15
ATOM     15  OG1 THR A   2     -23.474  17.390  -0.052  0.00  0.00    -0.382 OA
ATOM     16  HG1 THR A   2     -23.971  17.404   0.804  0.00  0.00    +0.210 HD
ENDBRANCH  13  15
ENDBRANCH  12  13
BRANCH  12  17
ATOM     17  C   THR A   2     -22.677  16.047  -2.517  0.00  0.00    +0.229 C 
ATOM     18  O   THR A   2     -23.180  16.981  -3.156  0.00  0.00    -0.286 OA
ENDBRANCH  12  17
ENDBRANCH   2  12
TORSDOF 9
REMARK  Name = ../refined-set-2016/4a4w/4a4w_pocket.pdb
REMARK  248 active torsions:
REMARK  status: ('A' for Active; 'I' for Inactive)
REMARK    1  A    between atoms: _1  and  _3
REMARK    2  A    between atoms: _3  and  _4
REMARK    3  A    between atoms: _3  and  _6
REMARK    4  A    between atoms: _6  and  _7
REMARK    5  A    between atoms: _14  and  _15
REMARK    6  A    between atoms: _20  and  _22
REMARK    7  A    between atoms: _22  and  _23
REMARK    8  A    between atoms: _22  and  _25
REMARK    9  A    between atoms: _25  and  _26
REMARK   10  A    between atoms: _29  and  _31
REMARK   11  A    between atoms: _31  and  _32
REMARK   12  A    between atoms: _31  and  _34
REMARK   13  A    between atoms: _34  and  _35
REMARK   14  A    between atoms: _38  and  _40
REMARK   15  A    between atoms: _40  and  _41
REMARK   16  A    between atoms: _40  and  _43
REMARK   17  A    between atoms: _43  and  _44
REMARK   18  A    between atoms: _46  and  _48
REMARK   19  A    between atoms: _48  and  _49
REMARK   20  A    between atoms: _48  and  _51
REMARK   21  A    between atoms: _51  and  _52
REMARK   22  A    between atoms: _55  and  _57
REMARK   23  A    between atoms: _57  and  _58
REMARK   24  A    between atoms: _57  and  _60
REMARK   25  A    between atoms: _60  and  _61
REMARK   26  A    between atoms: _61  and  _62
REMARK   27  A    between atoms: _64  and  _66
REMARK   28  A    between atoms: _66  and  _67
REMARK   29  A    between atoms: _69  and  _71
REMARK   30  A    between atoms: _71  and  _72
REMARK   31  A    between atoms: _71  and  _74
REMARK   32  A    between atoms: _74  and  _75
REMARK   33  A    between atoms: _75  and  _76
REMARK   34  A    between atoms: _79  and  _81
REMARK   35  A    between atoms: _81  and  _82
REMARK   36  A    between atoms: _81  and  _84
REMARK   37  A    between atoms: _84  and  _85
REMARK   38  A    between atoms: _88  and  _90
REMARK   39  A    between atoms: _90  and  _91
REMARK   40  A    between atoms: _90  and  _93
REMARK   41  A    between atoms: _93  and  _94
REMARK   42  A    between atoms: _94  and  _95
REMARK   43  A    between atoms: _98  and  _100
REMARK   44  A    between atoms: _100  and  _101
REMARK   45  A    between atoms: _100  and  _103
REMARK   46  A    between atoms: _106  and  _108
REMARK   47  A    between atoms: _108  and  _109
REMARK   48  A    between atoms: _112  and  _114
REMARK   49  A    between atoms: _114  and  _115
REMARK   50  A    between atoms: _114  and  _117
REMARK   51  A    between atoms: _117  and  _118
REMARK   52  A    between atoms: _121  and  _123
REMARK   53  A    between atoms: _123  and  _124
REMARK   54  A    between atoms: _123  and  _126
REMARK   55  A    between atoms: _126  and  _127
REMARK   56  A    between atoms: _127  and  _128
REMARK   57  A    between atoms: _128  and  _129
REMARK   58  A    between atoms: _138  and  _140
REMARK   59  A    between atoms: _140  and  _141
REMARK   60  A    between atoms: _140  and  _143
REMARK   61  A    between atoms: _143  and  _144
REMARK   62  A    between atoms: _147  and  _149
REMARK   63  A    between atoms: _149  and  _150
REMARK   64  A    between atoms: _149  and  _152
REMARK   65  A    between atoms: _152  and  _153
REMARK   66  A    between atoms: _159  and  _161
REMARK   67  A    between atoms: _161  and  _162
REMARK   68  A    between atoms: _161  and  _164
REMARK   69  A    between atoms: _164  and  _165
REMARK   70  A    between atoms: _165  and  _166
REMARK   71  A    between atoms: _171  and  _173
REMARK   72  A    between atoms: _173  and  _174
REMARK   73  A    between atoms: _176  and  _178
REMARK   74  A    between atoms: _178  and  _179
REMARK   75  A    between atoms: _178  and  _181
REMARK   76  A    between atoms: _183  and  _185
REMARK   77  A    between atoms: _185  and  _186
REMARK   78  A    between atoms: _185  and  _188
REMARK   79  A    between atoms: _188  and  _189
REMARK   80  A    between atoms: _189  and  _190
REMARK   81  A    between atoms: _195  and  _197
REMARK   82  A    between atoms: _197  and  _198
REMARK   83  A    between atoms: _197  and  _200
REMARK   84  A    between atoms: _200  and  _201
REMARK   85  A    between atoms: _207  and  _209
REMARK   86  A    between atoms: _209  and  _210
REMARK   87  A    between atoms: _209  and  _212
REMARK   88  A    between atoms: _212  and  _213
REMARK   89  A    between atoms: _213  and  _214
REMARK   90  A    between atoms: _214  and  _215
REMARK   91  A    between atoms: _224  and  _226
REMARK   92  A    between atoms: _226  and  _227
REMARK   93  A    between atoms: _226  and  _229
REMARK   94  A    between atoms: _229  and  _230
REMARK   95  A    between atoms: _232  and  _234
REMARK   96  A    between atoms: _234  and  _235
REMARK   97  A    between atoms: _234  and  _237
REMARK   98  A    between atoms: _240  and  _242
REMARK   99  A    between atoms: _242  and  _243
REMARK  100  A    between atoms: _242  and  _245
REMARK  101  A    between atoms: _245  and  _246
REMARK  102  A    between atoms: _246  and  _247
REMARK  103  A    between atoms: _250  and  _252
REMARK  104  A    between atoms: _252  and  _253
REMARK  105  A    between atoms: _256  and  _258
REMARK  106  A    between atoms: _258  and  _259
REMARK  107  A    between atoms: _258  and  _261
REMARK  108  A    between atoms: _264  and  _266
REMARK  109  A    between atoms: _266  and  _267
REMARK  110  A    between atoms: _266  and  _269
REMARK  111  A    between atoms: _269  and  _270
REMARK  112  A    between atoms: _270  and  _271
REMARK  113  A    between atoms: _274  and  _276
REMARK  114  A    between atoms: _276  and  _277
REMARK  115  A    between atoms: _276  and  _279
REMARK  116  A    between atoms: _279  and  _280
REMARK  117  A    between atoms: _283  and  _285
REMARK  118  A    between atoms: _285  and  _286
REMARK  119  A    between atoms: _285  and  _288
REMARK  120  A    between atoms: _291  and  _293
REMARK  121  A    between atoms: _293  and  _294
REMARK  122  A    between atoms: _293  and  _296
REMARK  123  A    between atoms: _296  and  _297
REMARK  124  A    between atoms: _302  and  _304
REMARK  125  A    between atoms: _304  and  _305
REMARK  126  A    between atoms: _304  and  _307
REMARK  127  A    between atoms: _307  and  _308
REMARK  128  A    between atoms: _308  and  _309
REMARK  129  A    between atoms: _312  and  _314
REMARK  130  A    between atoms: _314  and  _315
REMARK  131  A    between atoms: _314  and  _317
REMARK  132  A    between atoms: _317  and  _318
REMARK  133  A    between atoms: _321  and  _323
REMARK  134  A    between atoms: _323  and  _324
REMARK  135  A    between atoms: _323  and  _326
REMARK  136  A    between atoms: _326  and  _327
REMARK  137  A    between atoms: _330  and  _332
REMARK  138  A    between atoms: _332  and  _333
REMARK  139  A    between atoms: _332  and  _335
REMARK  140  A    between atoms: _335  and  _336
REMARK  141  A    between atoms: _341  and  _342
REMARK  142  A    between atoms: _344  and  _346
REMARK  143  A    between atoms: _346  and  _347
REMARK  144  A    between atoms: _346  and  _349
REMARK  145  A    between atoms: _349  and  _350
REMARK  146  A    between atoms: _353  and  _355
REMARK  147  A    between atoms: _355  and  _356
REMARK  148  A    between atoms: _355  and  _358
REMARK  149  A    between atoms: _358  and  _359
REMARK  150  A    between atoms: _359  and  _360
REMARK  151  A    between atoms: _362  and  _364
REMARK  152  A    between atoms: _364  and  _365
REMARK  153  A    between atoms: _364  and  _367
REMARK  154  A    between atoms: _367  and  _368
REMARK  155  A    between atoms: _371  and  _373
REMARK  156  A    between atoms: _373  and  _374
REMARK  157  A    between atoms: _377  and  _379
REMARK  158  A    between atoms: _379  and  _380
REMARK  159  A    between atoms: _379  and  _382
REMARK  160  A    between atoms: _382  and  _383
REMARK  161  A    between atoms: _385  and  _387
REMARK  162  A    between atoms: _387  and  _388
REMARK  163  A    between atoms: _387  and  _390
REMARK  164  A    between atoms: _390  and  _391
REMARK  165  A    between atoms: _394  and  _396
REMARK  166  A    between atoms: _396  and  _397
REMARK  167  A    between atoms: _396  and  _399
REMARK  168  A    between atoms: _399  and  _400
REMARK  169  A    between atoms: _400  and  _401
REMARK  170  A    between atoms: _403  and  _405
REMARK  171  A    between atoms: _405  and  _406
REMARK  172  A    between atoms: _405  and  _408
REMARK  173  A    between atoms: _411  and  _413
REMARK  174  A    between atoms: _413  and  _414
REMARK  175  A    between atoms: _413  and  _416
REMARK  176  A    between atoms: _416  and  _417
REMARK  177  A    between atoms: _420  and  _422
REMARK  178  A    between atoms: _422  and  _423
REMARK  179  A    between atoms: _422  and  _425
REMARK  180  A    between atoms: _425  and  _426
REMARK  181  A    between atoms: _429  and  _431
REMARK  182  A    between atoms: _431  and  _432
REMARK  183  A    between atoms: _431  and  _434
REMARK  184  A    between atoms: _434  and  _435
REMARK  185  A    between atoms: _437  and  _439
REMARK  186  A    between atoms: _439  and  _440
REMARK  187  A    between atoms: _439  and  _442
REMARK  188  A    between atoms: _442  and  _443
REMARK  189  A    between atoms: _443  and  _444
REMARK  190  A    between atoms: _447  and  _449
REMARK  191  A    between atoms: _449  and  _450
REMARK  192  A    between atoms: _452  and  _454
REMARK  193  A    between atoms: _454  and  _455
REMARK  194  A    between atoms: _454  and  _457
REMARK  195  A    between atoms: _457  and  _458
REMARK  196  A    between atoms: _458  and  _459
REMARK  197  A    between atoms: _464  and  _466
REMARK  198  A    between atoms: _466  and  _467
REMARK  199  A    between atoms: _469  and  _471
REMARK  200  A    between atoms: _471  and  _472
REMARK  201  A    between atoms: _471  and  _474
REMARK  202  A    between atoms: _474  and  _475
REMARK  203  A    between atoms: _475  and  _476
REMARK  204  A    between atoms: _478  and  _480
REMARK  205  A    between atoms: _480  and  _481
REMARK  206  A    between atoms: _480  and  _483
REMARK  207  A    between atoms: _483  and  _484
REMARK  208  A    between atoms: _487  and  _489
REMARK  209  A    between atoms: _489  and  _490
REMARK  210  A    between atoms: _489  and  _492
REMARK  211  A    between atoms: _492  and  _493
REMARK  212  A    between atoms: _499  and  _501
REMARK  213  A    between atoms: _501  and  _502
REMARK  214  A    between atoms: _501  and  _504
REMARK  215  A    between atoms: _504  and  _505
REMARK  216  A    between atoms: _508  and  _510
REMARK  217  A    between atoms: _510  and  _511
REMARK  218  A    between atoms: _510  and  _513
REMARK  219  A    between atoms: _513  and  _514
REMARK  220  A    between atoms: _517  and  _519
REMARK  221  A    between atoms: _519  and  _520
REMARK  222  A    between atoms: _519  and  _522
REMARK  223  A    between atoms: _522  and  _523
REMARK  224  A    between atoms: _529  and  _531
REMARK  225  A    between atoms: _531  and  _532
REMARK  226  A    between atoms: _531  and  _534
REMARK  227  A    between atoms: _534  and  _535
REMARK  228  A    between atoms: _535  and  _536
REMARK  229  A    between atoms: _538  and  _540
REMARK  230  A    between atoms: _540  and  _541
REMARK  231  A    between atoms: _540  and  _543
REMARK  232  A    between atoms: _543  and  _544
REMARK  233  A    between atoms: _544  and  _545
REMARK  234  A    between atoms: _545  and  _546
REMARK  235  A    between atoms: _546  and  _547
REMARK  236  A    between atoms: _551  and  _553
REMARK  237  A    between atoms: _553  and  _554
REMARK  238  A    between atoms: _553  and  _556
REMARK  239  A    between atoms: _556  and  _557
REMARK  240  A    between atoms: _563  and  _565
REMARK  241  A    between atoms: _565  and  _566
REMARK  242  A    between atoms: _565  and  _568
REMARK  243  A    between atoms: _568  and  _569
REMARK  244  A    between atoms: _574  and  _576
REMARK  245  A    between atoms: _576  and  _577
REMARK  246  A    between atoms: _576  and  _579
REMARK  247  A    between atoms: _579  and  _580
REMARK  248  A    between atoms: _585  and  _586
REMARK                            x       y       z     vdW  Elec       q    Type
REMARK                         _______ _______ _______ _____ _____    ______ ____
ROOT
ATOM      1  C   PHE A   1     -26.306  19.376  -3.611  0.00  0.00    +0.239 C 
ATOM      2  O   PHE A   1     -27.086  20.243  -4.006  0.00  0.00    -0.274 OA
ATOM      3  N   LEU A   2     -25.549  18.654  -4.428  0.00  0.00    -0.298 N 
ATOM      4  H   LEU A   2     -24.878  17.974  -4.017  0.00  0.00    +0.150 HD
ENDROOT
BRANCH   1   5
ATOM      5  CA  PHE A   1     -26.175  19.073  -2.122  0.00  0.00    +0.149 C 
BRANCH   5   6
ATOM      6  N   PHE A   1     -26.122  17.648  -1.871  0.00  0.00    -0.238 NA
ATOM      7  H   PHE A   1     -25.264  17.235  -1.451  0.00  0.00    +0.142 HD
ENDBRANCH   5   6
BRANCH   5   8
ATOM      8  CB  PHE A   1     -24.961  19.776  -1.531  0.00  0.00    +0.053 C 
BRANCH   8   9
ATOM      9  CG  PHE A   1     -24.872  21.224  -1.898  0.00  0.00    -0.020 A 
ATOM     10  CD2 PHE A   1     -25.899  22.106  -1.566  0.00  0.00    -0.004 A 
ATOM     11  CE2 PHE A   1     -25.822  23.443  -1.908  0.00  0.00    -0.000 A 
ATOM     12  CZ  PHE A   1     -24.717  23.924  -2.590  0.00  0.00    -0.000 A 
ATOM     13  CE1 PHE A   1     -23.685  23.060  -2.929  0.00  0.00    -0.000 A 
ATOM     14  CD1 PHE A   1     -23.768  21.712  -2.584  0.00  0.00    -0.004 A 
ENDBRANCH   8   9
ENDBRANCH   5   8
ENDBRANCH   1   5
BRANCH   3  15
ATOM     15  CA  LEU A   2     -25.622  18.777  -5.887  0.00  0.00    +0.137 C 
BRANCH  15  16
ATOM     16  C   LEU A   2     -26.992  18.363  -6.407  0.00  0.00    +0.227 C 
ATOM     17  O   LEU A   2     -27.557  19.035  -7.264  0.00  0.00    -0.286 OA
ENDBRANCH  15  16
BRANCH  15  18
ATOM     18  CB  LEU A   2     -24.522  17.950  -6.557  0.00  0.00    +0.028 C 
BRANCH  18  19
ATOM     19  CG  LEU A   2     -23.157  18.633  -6.560  0.00  0.00    +0.002 C 
ATOM     20  CD2 LEU A   2     -22.056  17.616  -6.705  0.00  0.00    +0.000 C 
ATOM     21  CD1 LEU A   2     -23.084  19.680  -7.675  0.00  0.00    +0.000 C 
ENDBRANCH  18  19
ENDBRANCH  15  18
ENDBRANCH   3  15
TORSDOF 8
REMARK  Name = ../refined-set-2016/4a4w/4a4w_pocket.pdb
REMARK  248 active torsions:
REMARK  status: ('A' for Active; 'I' for Inactive)
REMARK    1  A    between atoms: _1  and  _3
REMARK    2  A    between atoms: _3  and  _4
REMARK    3  A    between atoms: _3  and  _6
REMARK    4  A    between atoms: _6  and  _7
REMARK    5  A    between atoms: _14  and  _15
REMARK    6  A    between atoms: _20  and  _22
REMARK    7  A    between atoms: _22  and  _23
REMARK    8  A    between atoms: _22  and  _25
REMARK    9  A    between atoms: _25  and  _26
REMARK   10  A    between atoms: _29  and  _31
REMARK   11  A    between atoms: _31  and  _32
REMARK   12  A    between atoms: _31  and  _34
REMARK   13  A    between atoms: _34  and  _35
REMARK   14  A    between atoms: _38  and  _40
REMARK   15  A    between atoms: _40  and  _41
REMARK   16  A    between atoms: _40  and  _43
REMARK   17  A    between atoms: _43  and  _44
REMARK   18  A    between atoms: _46  and  _48
REMARK   19  A    between atoms: _48  and  _49
REMARK   20  A    between atoms: _48  and  _51
REMARK   21  A    between atoms: _51  and  _52
REMARK   22  A    between atoms: _55  and  _57
REMARK   23  A    between atoms: _57  and  _58
REMARK   24  A    between atoms: _57  and  _60
REMARK   25  A    between atoms: _60  and  _61
REMARK   26  A    between atoms: _61  and  _62
REMARK   27  A    between atoms: _64  and  _66
REMARK   28  A    between atoms: _66  and  _67
REMARK   29  A    between atoms: _69  and  _71
REMARK   30  A    between atoms: _71  and  _72
REMARK   31  A    between atoms: _71  and  _74
REMARK   32  A    between atoms: _74  and  _75
REMARK   33  A    between atoms: _75  and  _76
REMARK   34  A    between atoms: _79  and  _81
REMARK   35  A    between atoms: _81  and  _82
REMARK   36  A    between atoms: _81  and  _84
REMARK   37  A    between atoms: _84  and  _85
REMARK   38  A    between atoms: _88  and  _90
REMARK   39  A    between atoms: _90  and  _91
REMARK   40  A    between atoms: _90  and  _93
REMARK   41  A    between atoms: _93  and  _94
REMARK   42  A    between atoms: _94  and  _95
REMARK   43  A    between atoms: _98  and  _100
REMARK   44  A    between atoms: _100  and  _101
REMARK   45  A    between atoms: _100  and  _103
REMARK   46  A    between atoms: _106  and  _108
REMARK   47  A    between atoms: _108  and  _109
REMARK   48  A    between atoms: _112  and  _114
REMARK   49  A    between atoms: _114  and  _115
REMARK   50  A    between atoms: _114  and  _117
REMARK   51  A    between atoms: _117  and  _118
REMARK   52  A    between atoms: _121  and  _123
REMARK   53  A    between atoms: _123  and  _124
REMARK   54  A    between atoms: _123  and  _126
REMARK   55  A    between atoms: _126  and  _127
REMARK   56  A    between atoms: _127  and  _128
REMARK   57  A    between atoms: _128  and  _129
REMARK   58  A    between atoms: _138  and  _140
REMARK   59  A    between atoms: _140  and  _141
REMARK   60  A    between atoms: _140  and  _143
REMARK   61  A    between atoms: _143  and  _144
REMARK   62  A    between atoms: _147  and  _149
REMARK   63  A    between atoms: _149  and  _150
REMARK   64  A    between atoms: _149  and  _152
REMARK   65  A    between atoms: _152  and  _153
REMARK   66  A    between atoms: _159  and  _161
REMARK   67  A    between atoms: _161  and  _162
REMARK   68  A    between atoms: _161  and  _164
REMARK   69  A    between atoms: _164  and  _165
REMARK   70  A    between atoms: _165  and  _166
REMARK   71  A    between atoms: _171  and  _173
REMARK   72  A    between atoms: _173  and  _174
REMARK   73  A    between atoms: _176  and  _178
REMARK   74  A    between atoms: _178  and  _179
REMARK   75  A    between atoms: _178  and  _181
REMARK   76  A    between atoms: _183  and  _185
REMARK   77  A    between atoms: _185  and  _186
REMARK   78  A    between atoms: _185  and  _188
REMARK   79  A    between atoms: _188  and  _189
REMARK   80  A    between atoms: _189  and  _190
REMARK   81  A    between atoms: _195  and  _197
REMARK   82  A    between atoms: _197  and  _198
REMARK   83  A    between atoms: _197  and  _200
REMARK   84  A    between atoms: _200  and  _201
REMARK   85  A    between atoms: _207  and  _209
REMARK   86  A    between atoms: _209  and  _210
REMARK   87  A    between atoms: _209  and  _212
REMARK   88  A    between atoms: _212  and  _213
REMARK   89  A    between atoms: _213  and  _214
REMARK   90  A    between atoms: _214  and  _215
REMARK   91  A    between atoms: _224  and  _226
REMARK   92  A    between atoms: _226  and  _227
REMARK   93  A    between atoms: _226  and  _229
REMARK   94  A    between atoms: _229  and  _230
REMARK   95  A    between atoms: _232  and  _234
REMARK   96  A    between atoms: _234  and  _235
REMARK   97  A    between atoms: _234  and  _237
REMARK   98  A    between atoms: _240  and  _242
REMARK   99  A    between atoms: _242  and  _243
REMARK  100  A    between atoms: _242  and  _245
REMARK  101  A    between atoms: _245  and  _246
REMARK  102  A    between atoms: _246  and  _247
REMARK  103  A    between atoms: _250  and  _252
REMARK  104  A    between atoms: _252  and  _253
REMARK  105  A    between atoms: _256  and  _258
REMARK  106  A    between atoms: _258  and  _259
REMARK  107  A    between atoms: _258  and  _261
REMARK  108  A    between atoms: _264  and  _266
REMARK  109  A    between atoms: _266  and  _267
REMARK  110  A    between atoms: _266  and  _269
REMARK  111  A    between atoms: _269  and  _270
REMARK  112  A    between atoms: _270  and  _271
REMARK  113  A    between atoms: _274  and  _276
REMARK  114  A    between atoms: _276  and  _277
REMARK  115  A    between atoms: _276  and  _279
REMARK  116  A    between atoms: _279  and  _280
REMARK  117  A    between atoms: _283  and  _285
REMARK  118  A    between atoms: _285  and  _286
REMARK  119  A    between atoms: _285  and  _288
REMARK  120  A    between atoms: _291  and  _293
REMARK  121  A    between atoms: _293  and  _294
REMARK  122  A    between atoms: _293  and  _296
REMARK  123  A    between atoms: _296  and  _297
REMARK  124  A    between atoms: _302  and  _304
REMARK  125  A    between atoms: _304  and  _305
REMARK  126  A    between atoms: _304  and  _307
REMARK  127  A    between atoms: _307  and  _308
REMARK  128  A    between atoms: _308  and  _309
REMARK  129  A    between atoms: _312  and  _314
REMARK  130  A    between atoms: _314  and  _315
REMARK  131  A    between atoms: _314  and  _317
REMARK  132  A    between atoms: _317  and  _318
REMARK  133  A    between atoms: _321  and  _323
REMARK  134  A    between atoms: _323  and  _324
REMARK  135  A    between atoms: _323  and  _326
REMARK  136  A    between atoms: _326  and  _327
REMARK  137  A    between atoms: _330  and  _332
REMARK  138  A    between atoms: _332  and  _333
REMARK  139  A    between atoms: _332  and  _335
REMARK  140  A    between atoms: _335  and  _336
REMARK  141  A    between atoms: _341  and  _342
REMARK  142  A    between atoms: _344  and  _346
REMARK  143  A    between atoms: _346  and  _347
REMARK  144  A    between atoms: _346  and  _349
REMARK  145  A    between atoms: _349  and  _350
REMARK  146  A    between atoms: _353  and  _355
REMARK  147  A    between atoms: _355  and  _356
REMARK  148  A    between atoms: _355  and  _358
REMARK  149  A    between atoms: _358  and  _359
REMARK  150  A    between atoms: _359  and  _360
REMARK  151  A    between atoms: _362  and  _364
REMARK  152  A    between atoms: _364  and  _365
REMARK  153  A    between atoms: _364  and  _367
REMARK  154  A    between atoms: _367  and  _368
REMARK  155  A    between atoms: _371  and  _373
REMARK  156  A    between atoms: _373  and  _374
REMARK  157  A    between atoms: _377  and  _379
REMARK  158  A    between atoms: _379  and  _380
REMARK  159  A    between atoms: _379  and  _382
REMARK  160  A    between atoms: _382  and  _383
REMARK  161  A    between atoms: _385  and  _387
REMARK  162  A    between atoms: _387  and  _388
REMARK  163  A    between atoms: _387  and  _390
REMARK  164  A    between atoms: _390  and  _391
REMARK  165  A    between atoms: _394  and  _396
REMARK  166  A    between atoms: _396  and  _397
REMARK  167  A    between atoms: _396  and  _399
REMARK  168  A    between atoms: _399  and  _400
REMARK  169  A    between atoms: _400  and  _401
REMARK  170  A    between atoms: _403  and  _405
REMARK  171  A    between atoms: _405  and  _406
REMARK  172  A    between atoms: _405  and  _408
REMARK  173  A    between atoms: _411  and  _413
REMARK  174  A    between atoms: _413  and  _414
REMARK  175  A    between atoms: _413  and  _416
REMARK  176  A    between atoms: _416  and  _417
REMARK  177  A    between atoms: _420  and  _422
REMARK  178  A    between atoms: _422  and  _423
REMARK  179  A    between atoms: _422  and  _425
REMARK  180  A    between atoms: _425  and  _426
REMARK  181  A    between atoms: _429  and  _431
REMARK  182  A    between atoms: _431  and  _432
REMARK  183  A    between atoms: _431  and  _434
REMARK  184  A    between atoms: _434  and  _435
REMARK  185  A    between atoms: _437  and  _439
REMARK  186  A    between atoms: _439  and  _440
REMARK  187  A    between atoms: _439  and  _442
REMARK  188  A    between atoms: _442  and  _443
REMARK  189  A    between atoms: _443  and  _444
REMARK  190  A    between atoms: _447  and  _449
REMARK  191  A    between atoms: _449  and  _450
REMARK  192  A    between atoms: _452  and  _454
REMARK  193  A    between atoms: _454  and  _455
REMARK  194  A    between atoms: _454  and  _457
REMARK  195  A    between atoms: _457  and  _458
REMARK  196  A    between atoms: _458  and  _459
REMARK  197  A    between atoms: _464  and  _466
REMARK  198  A    between atoms: _466  and  _467
REMARK  199  A    between atoms: _469  and  _471
REMARK  200  A    between atoms: _471  and  _472
REMARK  201  A    between atoms: _471  and  _474
REMARK  202  A    between atoms: _474  and  _475
REMARK  203  A    between atoms: _475  and  _476
REMARK  204  A    between atoms: _478  and  _480
REMARK  205  A    between atoms: _480  and  _481
REMARK  206  A    between atoms: _480  and  _483
REMARK  207  A    between atoms: _483  and  _484
REMARK  208  A    between atoms: _487  and  _489
REMARK  209  A    between atoms: _489  and  _490
REMARK  210  A    between atoms: _489  and  _492
REMARK  211  A    between atoms: _492  and  _493
REMARK  212  A    between atoms: _499  and  _501
REMARK  213  A    between atoms: _501  and  _502
REMARK  214  A    between atoms: _501  and  _504
REMARK  215  A    between atoms: _504  and  _505
REMARK  216  A    between atoms: _508  and  _510
REMARK  217  A    between atoms: _510  and  _511
REMARK  218  A    between atoms: _510  and  _513
REMARK  219  A    between atoms: _513  and  _514
REMARK  220  A    between atoms: _517  and  _519
REMARK  221  A    between atoms: _519  and  _520
REMARK  222  A    between atoms: _519  and  _522
REMARK  223  A    between atoms: _522  and  _523
REMARK  224  A    between atoms: _529  and  _531
REMARK  225  A    between atoms: _531  and  _532
REMARK  226  A    between atoms: _531  and  _534
REMARK  227  A    between atoms: _534  and  _535
REMARK  228  A    between atoms: _535  and  _536
REMARK  229  A    between atoms: _538  and  _540
REMARK  230  A    between atoms: _540  and  _541
REMARK  231  A    between atoms: _540  and  _543
REMARK  232  A    between atoms: _543  and  _544
REMARK  233  A    between atoms: _544  and  _545
REMARK  234  A    between atoms: _545  and  _546
REMARK  235  A    between atoms: _546  and  _547
REMARK  236  A    between atoms: _551  and  _553
REMARK  237  A    between atoms: _553  and  _554
REMARK  238  A    between atoms: _553  and  _556
REMARK  239  A    between atoms: _556  and  _557
REMARK  240  A    between atoms: _563  and  _565
REMARK  241  A    between atoms: _565  and  _566
REMARK  242  A    between atoms: _565  and  _568
REMARK  243  A    between atoms: _568  and  _569
REMARK  244  A    between atoms: _574  and  _576
REMARK  245  A    between atoms: _576  and  _577
REMARK  246  A    between atoms: _576  and  _579
REMARK  247  A    between atoms: _579  and  _580
REMARK  248  A    between atoms: _585  and  _586
REMARK                            x       y       z     vdW  Elec       q    Type
REMARK                         _______ _______ _______ _____ _____    ______ ____
ROOT
ATOM      1  CA  LEU A   1     -29.925  22.096  -6.977  0.00  0.00    +0.133 C 
ENDROOT
BRANCH   1   2
ATOM      2  N   LEU A   1     -29.983  20.860  -6.189  0.00  0.00    -0.239 NA
ATOM      3  H   LEU A   1     -29.386  20.053  -6.462  0.00  0.00    +0.142 HD
ENDBRANCH   1   2
BRANCH   1   4
ATOM      4  C   LEU A   1     -31.169  22.259  -7.854  0.00  0.00    +0.224 C 
ATOM      5  O   LEU A   1     -31.714  21.271  -8.337  0.00  0.00    -0.287 OA
ENDBRANCH   1   4
BRANCH   1   6
ATOM      6  CB  LEU A   1     -28.650  22.147  -7.829  0.00  0.00    +0.025 C 
BRANCH   6   7
ATOM      7  CG  LEU A   1     -27.332  22.425  -7.096  0.00  0.00    +0.002 C 
ATOM      8  CD2 LEU A   1     -27.287  23.845  -6.525  0.00  0.00    +0.000 C 
ATOM      9  CD1 LEU A   1     -26.137  22.168  -8.016  0.00  0.00    +0.000 C 
ENDBRANCH   6   7
ENDBRANCH   1   6
TORSDOF 4
REMARK  Name = ../refined-set-2016/4a4w/4a4w_pocket.pdb
REMARK  248 active torsions:
REMARK  status: ('A' for Active; 'I' for Inactive)
REMARK    1  A    between atoms: _1  and  _3
REMARK    2  A    between atoms: _3  and  _4
REMARK    3  A    between atoms: _3  and  _6
REMARK    4  A    between atoms: _6  and  _7
REMARK    5  A    between atoms: _14  and  _15
REMARK    6  A    between atoms: _20  and  _22
REMARK    7  A    between atoms: _22  and  _23
REMARK    8  A    between atoms: _22  and  _25
REMARK    9  A    between atoms: _25  and  _26
REMARK   10  A    between atoms: _29  and  _31
REMARK   11  A    between atoms: _31  and  _32
REMARK   12  A    between atoms: _31  and  _34
REMARK   13  A    between atoms: _34  and  _35
REMARK   14  A    between atoms: _38  and  _40
REMARK   15  A    between atoms: _40  and  _41
REMARK   16  A    between atoms: _40  and  _43
REMARK   17  A    between atoms: _43  and  _44
REMARK   18  A    between atoms: _46  and  _48
REMARK   19  A    between atoms: _48  and  _49
REMARK   20  A    between atoms: _48  and  _51
REMARK   21  A    between atoms: _51  and  _52
REMARK   22  A    between atoms: _55  and  _57
REMARK   23  A    between atoms: _57  and  _58
REMARK   24  A    between atoms: _57  and  _60
REMARK   25  A    between atoms: _60  and  _61
REMARK   26  A    between atoms: _61  and  _62
REMARK   27  A    between atoms: _64  and  _66
REMARK   28  A    between atoms: _66  and  _67
REMARK   29  A    between atoms: _69  and  _71
REMARK   30  A    between atoms: _71  and  _72
REMARK   31  A    between atoms: _71  and  _74
REMARK   32  A    between atoms: _74  and  _75
REMARK   33  A    between atoms: _75  and  _76
REMARK   34  A    between atoms: _79  and  _81
REMARK   35  A    between atoms: _81  and  _82
REMARK   36  A    between atoms: _81  and  _84
REMARK   37  A    between atoms: _84  and  _85
REMARK   38  A    between atoms: _88  and  _90
REMARK   39  A    between atoms: _90  and  _91
REMARK   40  A    between atoms: _90  and  _93
REMARK   41  A    between atoms: _93  and  _94
REMARK   42  A    between atoms: _94  and  _95
REMARK   43  A    between atoms: _98  and  _100
REMARK   44  A    between atoms: _100  and  _101
REMARK   45  A    between atoms: _100  and  _103
REMARK   46  A    between atoms: _106  and  _108
REMARK   47  A    between atoms: _108  and  _109
REMARK   48  A    between atoms: _112  and  _114
REMARK   49  A    between atoms: _114  and  _115
REMARK   50  A    between atoms: _114  and  _117
REMARK   51  A    between atoms: _117  and  _118
REMARK   52  A    between atoms: _121  and  _123
REMARK   53  A    between atoms: _123  and  _124
REMARK   54  A    between atoms: _123  and  _126
REMARK   55  A    between atoms: _126  and  _127
REMARK   56  A    between atoms: _127  and  _128
REMARK   57  A    between atoms: _128  and  _129
REMARK   58  A    between atoms: _138  and  _140
REMARK   59  A    between atoms: _140  and  _141
REMARK   60  A    between atoms: _140  and  _143
REMARK   61  A    between atoms: _143  and  _144
REMARK   62  A    between atoms: _147  and  _149
REMARK   63  A    between atoms: _149  and  _150
REMARK   64  A    between atoms: _149  and  _152
REMARK   65  A    between atoms: _152  and  _153
REMARK   66  A    between atoms: _159  and  _161
REMARK   67  A    between atoms: _161  and  _162
REMARK   68  A    between atoms: _161  and  _164
REMARK   69  A    between atoms: _164  and  _165
REMARK   70  A    between atoms: _165  and  _166
REMARK   71  A    between atoms: _171  and  _173
REMARK   72  A    between atoms: _173  and  _174
REMARK   73  A    between atoms: _176  and  _178
REMARK   74  A    between atoms: _178  and  _179
REMARK   75  A    between atoms: _178  and  _181
REMARK   76  A    between atoms: _183  and  _185
REMARK   77  A    between atoms: _185  and  _186
REMARK   78  A    between atoms: _185  and  _188
REMARK   79  A    between atoms: _188  and  _189
REMARK   80  A    between atoms: _189  and  _190
REMARK   81  A    between atoms: _195  and  _197
REMARK   82  A    between atoms: _197  and  _198
REMARK   83  A    between atoms: _197  and  _200
REMARK   84  A    between atoms: _200  and  _201
REMARK   85  A    between atoms: _207  and  _209
REMARK   86  A    between atoms: _209  and  _210
REMARK   87  A    between atoms: _209  and  _212
REMARK   88  A    between atoms: _212  and  _213
REMARK   89  A    between atoms: _213  and  _214
REMARK   90  A    between atoms: _214  and  _215
REMARK   91  A    between atoms: _224  and  _226
REMARK   92  A    between atoms: _226  and  _227
REMARK   93  A    between atoms: _226  and  _229
REMARK   94  A    between atoms: _229  and  _230
REMARK   95  A    between atoms: _232  and  _234
REMARK   96  A    between atoms: _234  and  _235
REMARK   97  A    between atoms: _234  and  _237
REMARK   98  A    between atoms: _240  and  _242
REMARK   99  A    between atoms: _242  and  _243
REMARK  100  A    between atoms: _242  and  _245
REMARK  101  A    between atoms: _245  and  _246
REMARK  102  A    between atoms: _246  and  _247
REMARK  103  A    between atoms: _250  and  _252
REMARK  104  A    between atoms: _252  and  _253
REMARK  105  A    between atoms: _256  and  _258
REMARK  106  A    between atoms: _258  and  _259
REMARK  107  A    between atoms: _258  and  _261
REMARK  108  A    between atoms: _264  and  _266
REMARK  109  A    between atoms: _266  and  _267
REMARK  110  A    between atoms: _266  and  _269
REMARK  111  A    between atoms: _269  and  _270
REMARK  112  A    between atoms: _270  and  _271
REMARK  113  A    between atoms: _274  and  _276
REMARK  114  A    between atoms: _276  and  _277
REMARK  115  A    between atoms: _276  and  _279
REMARK  116  A    between atoms: _279  and  _280
REMARK  117  A    between atoms: _283  and  _285
REMARK  118  A    between atoms: _285  and  _286
REMARK  119  A    between atoms: _285  and  _288
REMARK  120  A    between atoms: _291  and  _293
REMARK  121  A    between atoms: _293  and  _294
REMARK  122  A    between atoms: _293  and  _296
REMARK  123  A    between atoms: _296  and  _297
REMARK  124  A    between atoms: _302  and  _304
REMARK  125  A    between atoms: _304  and  _305
REMARK  126  A    between atoms: _304  and  _307
REMARK  127  A    between atoms: _307  and  _308
REMARK  128  A    between atoms: _308  and  _309
REMARK  129  A    between atoms: _312  and  _314
REMARK  130  A    between atoms: _314  and  _315
REMARK  131  A    between atoms: _314  and  _317
REMARK  132  A    between atoms: _317  and  _318
REMARK  133  A    between atoms: _321  and  _323
REMARK  134  A    between atoms: _323  and  _324
REMARK  135  A    between atoms: _323  and  _326
REMARK  136  A    between atoms: _326  and  _327
REMARK  137  A    between atoms: _330  and  _332
REMARK  138  A    between atoms: _332  and  _333
REMARK  139  A    between atoms: _332  and  _335
REMARK  140  A    between atoms: _335  and  _336
REMARK  141  A    between atoms: _341  and  _342
REMARK  142  A    between atoms: _344  and  _346
REMARK  143  A    between atoms: _346  and  _347
REMARK  144  A    between atoms: _346  and  _349
REMARK  145  A    between atoms: _349  and  _350
REMARK  146  A    between atoms: _353  and  _355
REMARK  147  A    between atoms: _355  and  _356
REMARK  148  A    between atoms: _355  and  _358
REMARK  149  A    between atoms: _358  and  _359
REMARK  150  A    between atoms: _359  and  _360
REMARK  151  A    between atoms: _362  and  _364
REMARK  152  A    between atoms: _364  and  _365
REMARK  153  A    between atoms: _364  and  _367
REMARK  154  A    between atoms: _367  and  _368
REMARK  155  A    between atoms: _371  and  _373
REMARK  156  A    between atoms: _373  and  _374
REMARK  157  A    between atoms: _377  and  _379
REMARK  158  A    between atoms: _379  and  _380
REMARK  159  A    between atoms: _379  and  _382
REMARK  160  A    between atoms: _382  and  _383
REMARK  161  A    between atoms: _385  and  _387
REMARK  162  A    between atoms: _387  and  _388
REMARK  163  A    between atoms: _387  and  _390
REMARK  164  A    between atoms: _390  and  _391
REMARK  165  A    between atoms: _394  and  _396
REMARK  166  A    between atoms: _396  and  _397
REMARK  167  A    between atoms: _396  and  _399
REMARK  168  A    between atoms: _399  and  _400
REMARK  169  A    between atoms: _400  and  _401
REMARK  170  A    between atoms: _403  and  _405
REMARK  171  A    between atoms: _405  and  _406
REMARK  172  A    between atoms: _405  and  _408
REMARK  173  A    between atoms: _411  and  _413
REMARK  174  A    between atoms: _413  and  _414
REMARK  175  A    between atoms: _413  and  _416
REMARK  176  A    between atoms: _416  and  _417
REMARK  177  A    between atoms: _420  and  _422
REMARK  178  A    between atoms: _422  and  _423
REMARK  179  A    between atoms: _422  and  _425
REMARK  180  A    between atoms: _425  and  _426
REMARK  181  A    between atoms: _429  and  _431
REMARK  182  A    between atoms: _431  and  _432
REMARK  183  A    between atoms: _431  and  _434
REMARK  184  A    between atoms: _434  and  _435
REMARK  185  A    between atoms: _437  and  _439
REMARK  186  A    between atoms: _439  and  _440
REMARK  187  A    between atoms: _439  and  _442
REMARK  188  A    between atoms: _442  and  _443
REMARK  189  A    between atoms: _443  and  _444
REMARK  190  A    between atoms: _447  and  _449
REMARK  191  A    between atoms: _449  and  _450
REMARK  192  A    between atoms: _452  and  _454
REMARK  193  A    between atoms: _454  and  _455
REMARK  194  A    between atoms: _454  and  _457
REMARK  195  A    between atoms: _457  and  _458
REMARK  196  A    between atoms: _458  and  _459
REMARK  197  A    between atoms: _464  and  _466
REMARK  198  A    between atoms: _466  and  _467
REMARK  199  A    between atoms: _469  and  _471
REMARK  200  A    between atoms: _471  and  _472
REMARK  201  A    between atoms: _471  and  _474
REMARK  202  A    between atoms: _474  and  _475
REMARK  203  A    between atoms: _475  and  _476
REMARK  204  A    between atoms: _478  and  _480
REMARK  205  A    between atoms: _480  and  _481
REMARK  206  A    between atoms: _480  and  _483
REMARK  207  A    between atoms: _483  and  _484
REMARK  208  A    between atoms: _487  and  _489
REMARK  209  A    between atoms: _489  and  _490
REMARK  210  A    between atoms: _489  and  _492
REMARK  211  A    between atoms: _492  and  _493
REMARK  212  A    between atoms: _499  and  _501
REMARK  213  A    between atoms: _501  and  _502
REMARK  214  A    between atoms: _501  and  _504
REMARK  215  A    between atoms: _504  and  _505
REMARK  216  A    between atoms: _508  and  _510
REMARK  217  A    between atoms: _510  and  _511
REMARK  218  A    between atoms: _510  and  _513
REMARK  219  A    between atoms: _513  and  _514
REMARK  220  A    between atoms: _517  and  _519
REMARK  221  A    between atoms: _519  and  _520
REMARK  222  A    between atoms: _519  and  _522
REMARK  223  A    between atoms: _522  and  _523
REMARK  224  A    between atoms: _529  and  _531
REMARK  225  A    between atoms: _531  and  _532
REMARK  226  A    between atoms: _531  and  _534
REMARK  227  A    between atoms: _534  and  _535
REMARK  228  A    between atoms: _535  and  _536
REMARK  229  A    between atoms: _538  and  _540
REMARK  230  A    between atoms: _540  and  _541
REMARK  231  A    between atoms: _540  and  _543
REMARK  232  A    between atoms: _543  and  _544
REMARK  233  A    between atoms: _544  and  _545
REMARK  234  A    between atoms: _545  and  _546
REMARK  235  A    between atoms: _546  and  _547
REMARK  236  A    between atoms: _551  and  _553
REMARK  237  A    between atoms: _553  and  _554
REMARK  238  A    between atoms: _553  and  _556
REMARK  239  A    between atoms: _556  and  _557
REMARK  240  A    between atoms: _563  and  _565
REMARK  241  A    between atoms: _565  and  _566
REMARK  242  A    between atoms: _565  and  _568
REMARK  243  A    between atoms: _568  and  _569
REMARK  244  A    between atoms: _574  and  _576
REMARK  245  A    between atoms: _576  and  _577
REMARK  246  A    between atoms: _576  and  _579
REMARK  247  A    between atoms: _579  and  _580
REMARK  248  A    between atoms: _585  and  _586
REMARK                            x       y       z     vdW  Elec       q    Type
REMARK                         _______ _______ _______ _____ _____    ______ ____
ROOT
ATOM      1  C   PHE A   1     -25.310  16.070 -13.453  0.00  0.00    +0.239 C 
ATOM      2  N   MET A   2     -25.092  15.993 -12.139  0.00  0.00    -0.298 N 
ATOM      3  H   MET A   2     -25.702  16.530 -11.491  0.00  0.00    +0.150 HD
ATOM      4  O   PHE A   1     -24.719  15.377 -14.274  0.00  0.00    -0.274 OA
ENDROOT
BRANCH   1   5
ATOM      5  CA  PHE A   1     -26.391  17.043 -13.934  0.00  0.00    +0.149 C 
BRANCH   5   6
ATOM      6  N   PHE A   1     -27.550  17.177 -13.057  0.00  0.00    -0.238 NA
ATOM      7  H   PHE A   1     -27.731  18.069 -12.554  0.00  0.00    +0.142 HD
ENDBRANCH   5   6
BRANCH   5   8
ATOM      8  CB  PHE A   1     -25.832  18.395 -14.422  0.00  0.00    +0.053 C 
BRANCH   8   9
ATOM      9  CG  PHE A   1     -24.997  19.154 -13.418  0.00  0.00    -0.020 A 
ATOM     10  CD2 PHE A   1     -25.595  19.949 -12.441  0.00  0.00    -0.004 A 
ATOM     11  CE2 PHE A   1     -24.821  20.691 -11.523  0.00  0.00    -0.000 A 
ATOM     12  CZ  PHE A   1     -23.434  20.661 -11.605  0.00  0.00    -0.000 A 
ATOM     13  CE1 PHE A   1     -22.821  19.895 -12.605  0.00  0.00    -0.000 A 
ATOM     14  CD1 PHE A   1     -23.606  19.150 -13.510  0.00  0.00    -0.004 A 
ENDBRANCH   8   9
ENDBRANCH   5   8
ENDBRANCH   1   5
BRANCH   2  15
ATOM     15  CA  MET A   2     -24.012  15.168 -11.588  0.00  0.00    +0.138 C 
BRANCH  15  16
ATOM     16  C   MET A   2     -24.433  13.743 -11.245  0.00  0.00    +0.227 C 
ATOM     17  O   MET A   2     -23.587  12.862 -11.128  0.00  0.00    -0.286 OA
ENDBRANCH  15  16
BRANCH  15  18
ATOM     18  CB  MET A   2     -23.387  15.827 -10.360  0.00  0.00    +0.039 C 
BRANCH  18  19
ATOM     19  CG  MET A   2     -22.604  17.086 -10.677  0.00  0.00    +0.060 C 
BRANCH  19  20
ATOM     20  SD  MET A   2     -21.320  16.801 -11.920  0.00  0.00    -0.139 S 
ATOM     21  CE  MET A   2     -20.139  15.912 -10.927  0.00  0.00    +0.069 C 
ENDBRANCH  19  20
ENDBRANCH  18  19
ENDBRANCH  15  18
ENDBRANCH   2  15
TORSDOF 9
REMARK  Name = ../refined-set-2016/4a4w/4a4w_pocket.pdb
REMARK  248 active torsions:
REMARK  status: ('A' for Active; 'I' for Inactive)
REMARK    1  A    between atoms: _1  and  _3
REMARK    2  A    between atoms: _3  and  _4
REMARK    3  A    between atoms: _3  and  _6
REMARK    4  A    between atoms: _6  and  _7
REMARK    5  A    between atoms: _14  and  _15
REMARK    6  A    between atoms: _20  and  _22
REMARK    7  A    between atoms: _22  and  _23
REMARK    8  A    between atoms: _22  and  _25
REMARK    9  A    between atoms: _25  and  _26
REMARK   10  A    between atoms: _29  and  _31
REMARK   11  A    between atoms: _31  and  _32
REMARK   12  A    between atoms: _31  and  _34
REMARK   13  A    between atoms: _34  and  _35
REMARK   14  A    between atoms: _38  and  _40
REMARK   15  A    between atoms: _40  and  _41
REMARK   16  A    between atoms: _40  and  _43
REMARK   17  A    between atoms: _43  and  _44
REMARK   18  A    between atoms: _46  and  _48
REMARK   19  A    between atoms: _48  and  _49
REMARK   20  A    between atoms: _48  and  _51
REMARK   21  A    between atoms: _51  and  _52
REMARK   22  A    between atoms: _55  and  _57
REMARK   23  A    between atoms: _57  and  _58
REMARK   24  A    between atoms: _57  and  _60
REMARK   25  A    between atoms: _60  and  _61
REMARK   26  A    between atoms: _61  and  _62
REMARK   27  A    between atoms: _64  and  _66
REMARK   28  A    between atoms: _66  and  _67
REMARK   29  A    between atoms: _69  and  _71
REMARK   30  A    between atoms: _71  and  _72
REMARK   31  A    between atoms: _71  and  _74
REMARK   32  A    between atoms: _74  and  _75
REMARK   33  A    between atoms: _75  and  _76
REMARK   34  A    between atoms: _79  and  _81
REMARK   35  A    between atoms: _81  and  _82
REMARK   36  A    between atoms: _81  and  _84
REMARK   37  A    between atoms: _84  and  _85
REMARK   38  A    between atoms: _88  and  _90
REMARK   39  A    between atoms: _90  and  _91
REMARK   40  A    between atoms: _90  and  _93
REMARK   41  A    between atoms: _93  and  _94
REMARK   42  A    between atoms: _94  and  _95
REMARK   43  A    between atoms: _98  and  _100
REMARK   44  A    between atoms: _100  and  _101
REMARK   45  A    between atoms: _100  and  _103
REMARK   46  A    between atoms: _106  and  _108
REMARK   47  A    between atoms: _108  and  _109
REMARK   48  A    between atoms: _112  and  _114
REMARK   49  A    between atoms: _114  and  _115
REMARK   50  A    between atoms: _114  and  _117
REMARK   51  A    between atoms: _117  and  _118
REMARK   52  A    between atoms: _121  and  _123
REMARK   53  A    between atoms: _123  and  _124
REMARK   54  A    between atoms: _123  and  _126
REMARK   55  A    between atoms: _126  and  _127
REMARK   56  A    between atoms: _127  and  _128
REMARK   57  A    between atoms: _128  and  _129
REMARK   58  A    between atoms: _138  and  _140
REMARK   59  A    between atoms: _140  and  _141
REMARK   60  A    between atoms: _140  and  _143
REMARK   61  A    between atoms: _143  and  _144
REMARK   62  A    between atoms: _147  and  _149
REMARK   63  A    between atoms: _149  and  _150
REMARK   64  A    between atoms: _149  and  _152
REMARK   65  A    between atoms: _152  and  _153
REMARK   66  A    between atoms: _159  and  _161
REMARK   67  A    between atoms: _161  and  _162
REMARK   68  A    between atoms: _161  and  _164
REMARK   69  A    between atoms: _164  and  _165
REMARK   70  A    between atoms: _165  and  _166
REMARK   71  A    between atoms: _171  and  _173
REMARK   72  A    between atoms: _173  and  _174
REMARK   73  A    between atoms: _176  and  _178
REMARK   74  A    between atoms: _178  and  _179
REMARK   75  A    between atoms: _178  and  _181
REMARK   76  A    between atoms: _183  and  _185
REMARK   77  A    between atoms: _185  and  _186
REMARK   78  A    between atoms: _185  and  _188
REMARK   79  A    between atoms: _188  and  _189
REMARK   80  A    between atoms: _189  and  _190
REMARK   81  A    between atoms: _195  and  _197
REMARK   82  A    between atoms: _197  and  _198
REMARK   83  A    between atoms: _197  and  _200
REMARK   84  A    between atoms: _200  and  _201
REMARK   85  A    between atoms: _207  and  _209
REMARK   86  A    between atoms: _209  and  _210
REMARK   87  A    between atoms: _209  and  _212
REMARK   88  A    between atoms: _212  and  _213
REMARK   89  A    between atoms: _213  and  _214
REMARK   90  A    between atoms: _214  and  _215
REMARK   91  A    between atoms: _224  and  _226
REMARK   92  A    between atoms: _226  and  _227
REMARK   93  A    between atoms: _226  and  _229
REMARK   94  A    between atoms: _229  and  _230
REMARK   95  A    between atoms: _232  and  _234
REMARK   96  A    between atoms: _234  and  _235
REMARK   97  A    between atoms: _234  and  _237
REMARK   98  A    between atoms: _240  and  _242
REMARK   99  A    between atoms: _242  and  _243
REMARK  100  A    between atoms: _242  and  _245
REMARK  101  A    between atoms: _245  and  _246
REMARK  102  A    between atoms: _246  and  _247
REMARK  103  A    between atoms: _250  and  _252
REMARK  104  A    between atoms: _252  and  _253
REMARK  105  A    between atoms: _256  and  _258
REMARK  106  A    between atoms: _258  and  _259
REMARK  107  A    between atoms: _258  and  _261
REMARK  108  A    between atoms: _264  and  _266
REMARK  109  A    between atoms: _266  and  _267
REMARK  110  A    between atoms: _266  and  _269
REMARK  111  A    between atoms: _269  and  _270
REMARK  112  A    between atoms: _270  and  _271
REMARK  113  A    between atoms: _274  and  _276
REMARK  114  A    between atoms: _276  and  _277
REMARK  115  A    between atoms: _276  and  _279
REMARK  116  A    between atoms: _279  and  _280
REMARK  117  A    between atoms: _283  and  _285
REMARK  118  A    between atoms: _285  and  _286
REMARK  119  A    between atoms: _285  and  _288
REMARK  120  A    between atoms: _291  and  _293
REMARK  121  A    between atoms: _293  and  _294
REMARK  122  A    between atoms: _293  and  _296
REMARK  123  A    between atoms: _296  and  _297
REMARK  124  A    between atoms: _302  and  _304
REMARK  125  A    between atoms: _304  and  _305
REMARK  126  A    between atoms: _304  and  _307
REMARK  127  A    between atoms: _307  and  _308
REMARK  128  A    between atoms: _308  and  _309
REMARK  129  A    between atoms: _312  and  _314
REMARK  130  A    between atoms: _314  and  _315
REMARK  131  A    between atoms: _314  and  _317
REMARK  132  A    between atoms: _317  and  _318
REMARK  133  A    between atoms: _321  and  _323
REMARK  134  A    between atoms: _323  and  _324
REMARK  135  A    between atoms: _323  and  _326
REMARK  136  A    between atoms: _326  and  _327
REMARK  137  A    between atoms: _330  and  _332
REMARK  138  A    between atoms: _332  and  _333
REMARK  139  A    between atoms: _332  and  _335
REMARK  140  A    between atoms: _335  and  _336
REMARK  141  A    between atoms: _341  and  _342
REMARK  142  A    between atoms: _344  and  _346
REMARK  143  A    between atoms: _346  and  _347
REMARK  144  A    between atoms: _346  and  _349
REMARK  145  A    between atoms: _349  and  _350
REMARK  146  A    between atoms: _353  and  _355
REMARK  147  A    between atoms: _355  and  _356
REMARK  148  A    between atoms: _355  and  _358
REMARK  149  A    between atoms: _358  and  _359
REMARK  150  A    between atoms: _359  and  _360
REMARK  151  A    between atoms: _362  and  _364
REMARK  152  A    between atoms: _364  and  _365
REMARK  153  A    between atoms: _364  and  _367
REMARK  154  A    between atoms: _367  and  _368
REMARK  155  A    between atoms: _371  and  _373
REMARK  156  A    between atoms: _373  and  _374
REMARK  157  A    between atoms: _377  and  _379
REMARK  158  A    between atoms: _379  and  _380
REMARK  159  A    between atoms: _379  and  _382
REMARK  160  A    between atoms: _382  and  _383
REMARK  161  A    between atoms: _385  and  _387
REMARK  162  A    between atoms: _387  and  _388
REMARK  163  A    between atoms: _387  and  _390
REMARK  164  A    between atoms: _390  and  _391
REMARK  165  A    between atoms: _394  and  _396
REMARK  166  A    between atoms: _396  and  _397
REMARK  167  A    between atoms: _396  and  _399
REMARK  168  A    between atoms: _399  and  _400
REMARK  169  A    between atoms: _400  and  _401
REMARK  170  A    between atoms: _403  and  _405
REMARK  171  A    between atoms: _405  and  _406
REMARK  172  A    between atoms: _405  and  _408
REMARK  173  A    between atoms: _411  and  _413
REMARK  174  A    between atoms: _413  and  _414
REMARK  175  A    between atoms: _413  and  _416
REMARK  176  A    between atoms: _416  and  _417
REMARK  177  A    between atoms: _420  and  _422
REMARK  178  A    between atoms: _422  and  _423
REMARK  179  A    between atoms: _422  and  _425
REMARK  180  A    between atoms: _425  and  _426
REMARK  181  A    between atoms: _429  and  _431
REMARK  182  A    between atoms: _431  and  _432
REMARK  183  A    between atoms: _431  and  _434
REMARK  184  A    between atoms: _434  and  _435
REMARK  185  A    between atoms: _437  and  _439
REMARK  186  A    between atoms: _439  and  _440
REMARK  187  A    between atoms: _439  and  _442
REMARK  188  A    between atoms: _442  and  _443
REMARK  189  A    between atoms: _443  and  _444
REMARK  190  A    between atoms: _447  and  _449
REMARK  191  A    between atoms: _449  and  _450
REMARK  192  A    between atoms: _452  and  _454
REMARK  193  A    between atoms: _454  and  _455
REMARK  194  A    between atoms: _454  and  _457
REMARK  195  A    between atoms: _457  and  _458
REMARK  196  A    between atoms: _458  and  _459
REMARK  197  A    between atoms: _464  and  _466
REMARK  198  A    between atoms: _466  and  _467
REMARK  199  A    between atoms: _469  and  _471
REMARK  200  A    between atoms: _471  and  _472
REMARK  201  A    between atoms: _471  and  _474
REMARK  202  A    between atoms: _474  and  _475
REMARK  203  A    between atoms: _475  and  _476
REMARK  204  A    between atoms: _478  and  _480
REMARK  205  A    between atoms: _480  and  _481
REMARK  206  A    between atoms: _480  and  _483
REMARK  207  A    between atoms: _483  and  _484
REMARK  208  A    between atoms: _487  and  _489
REMARK  209  A    between atoms: _489  and  _490
REMARK  210  A    between atoms: _489  and  _492
REMARK  211  A    between atoms: _492  and  _493
REMARK  212  A    between atoms: _499  and  _501
REMARK  213  A    between atoms: _501  and  _502
REMARK  214  A    between atoms: _501  and  _504
REMARK  215  A    between atoms: _504  and  _505
REMARK  216  A    between atoms: _508  and  _510
REMARK  217  A    between atoms: _510  and  _511
REMARK  218  A    between atoms: _510  and  _513
REMARK  219  A    between atoms: _513  and  _514
REMARK  220  A    between atoms: _517  and  _519
REMARK  221  A    between atoms: _519  and  _520
REMARK  222  A    between atoms: _519  and  _522
REMARK  223  A    between atoms: _522  and  _523
REMARK  224  A    between atoms: _529  and  _531
REMARK  225  A    between atoms: _531  and  _532
REMARK  226  A    between atoms: _531  and  _534
REMARK  227  A    between atoms: _534  and  _535
REMARK  228  A    between atoms: _535  and  _536
REMARK  229  A    between atoms: _538  and  _540
REMARK  230  A    between atoms: _540  and  _541
REMARK  231  A    between atoms: _540  and  _543
REMARK  232  A    between atoms: _543  and  _544
REMARK  233  A    between atoms: _544  and  _545
REMARK  234  A    between atoms: _545  and  _546
REMARK  235  A    between atoms: _546  and  _547
REMARK  236  A    between atoms: _551  and  _553
REMARK  237  A    between atoms: _553  and  _554
REMARK  238  A    between atoms: _553  and  _556
REMARK  239  A    between atoms: _556  and  _557
REMARK  240  A    between atoms: _563  and  _565
REMARK  241  A    between atoms: _565  and  _566
REMARK  242  A    between atoms: _565  and  _568
REMARK  243  A    between atoms: _568  and  _569
REMARK  244  A    between atoms: _574  and  _576
REMARK  245  A    between atoms: _576  and  _577
REMARK  246  A    between atoms: _576  and  _579
REMARK  247  A    between atoms: _579  and  _580
REMARK  248  A    between atoms: _585  and  _586
REMARK                            x       y       z     vdW  Elec       q    Type
REMARK                         _______ _______ _______ _____ _____    ______ ____
ROOT
ATOM      1  C   LYS A   1     -21.400   9.941 -11.773  0.00  0.00    +0.238 C 
ATOM      2  N   PHE A   2     -22.103  10.250 -10.678  0.00  0.00    -0.298 N 
ATOM      3  H   PHE A   2     -22.770  11.047 -10.703  0.00  0.00    +0.150 HD
ATOM      4  O   LYS A   1     -20.529   9.053 -11.790  0.00  0.00    -0.274 OA
ENDROOT
BRANCH   1   5
ATOM      5  CA  LYS A   1     -21.711  10.727 -13.045  0.00  0.00    +0.145 C 
BRANCH   5   6
ATOM      6  N   LYS A   1     -23.161  10.885 -13.221  0.00  0.00    -0.238 NA
ATOM      7  H   LYS A   1     -23.598  11.824 -13.128  0.00  0.00    +0.142 HD
ENDBRANCH   5   6
BRANCH   5   8
ATOM      8  CB  LYS A   1     -20.974  12.074 -13.076  0.00  0.00    +0.026 C 
BRANCH   8   9
ATOM      9  CG  LYS A   1     -20.927  12.749 -14.468  0.00  0.00    -0.000 C 
BRANCH   9  10
ATOM     10  CD  LYS A   1     -22.204  13.521 -14.779  0.00  0.00    -0.024 C 
BRANCH  10  11
ATOM     11  CE  LYS A   1     -22.146  14.246 -16.125  0.00  0.00    -0.086 C 
BRANCH  11  12
ATOM     12  NZ  LYS A   1     -23.425  14.987 -16.436  0.00  0.00    +0.380 N 
ATOM     13  HZ1 LYS A   1     -23.602  15.696 -15.696  0.00  0.00    -0.089 HD
ATOM     14  HZ2 LYS A   1     -24.216  14.313 -16.468  0.00  0.00    -0.089 HD
ATOM     15  HZ3 LYS A   1     -23.334  15.461 -17.357  0.00  0.00    -0.089 HD
ENDBRANCH  11  12
ENDBRANCH  10  11
ENDBRANCH   9  10
ENDBRANCH   8   9
ENDBRANCH   5   8
ENDBRANCH   1   5
BRANCH   2  16
ATOM     16  CA  PHE A   2     -21.944   9.480  -9.446  0.00  0.00    +0.141 C 
BRANCH  16  17
ATOM     17  C   PHE A   2     -22.341   8.023  -9.636  0.00  0.00    +0.227 C 
ATOM     18  O   PHE A   2     -21.667   7.116  -9.129  0.00  0.00    -0.286 OA
ENDBRANCH  16  17
BRANCH  16  19
ATOM     19  CB  PHE A   2     -22.778  10.064  -8.306  0.00  0.00    +0.054 C 
BRANCH  19  20
ATOM     20  CG  PHE A   2     -22.178  11.268  -7.679  0.00  0.00    -0.020 A 
ATOM     21  CD2 PHE A   2     -21.079  11.151  -6.855  0.00  0.00    -0.004 A 
ATOM     22  CE2 PHE A   2     -20.510  12.291  -6.258  0.00  0.00    -0.000 A 
ATOM     23  CZ  PHE A   2     -21.062  13.529  -6.477  0.00  0.00    -0.000 A 
ATOM     24  CE1 PHE A   2     -22.171  13.653  -7.302  0.00  0.00    -0.000 A 
ATOM     25  CD1 PHE A   2     -22.727  12.526  -7.896  0.00  0.00    -0.004 A 
ENDBRANCH  19  20
ENDBRANCH  16  19
ENDBRANCH   2  16
TORSDOF 11
REMARK  Name = ../refined-set-2016/4a4w/4a4w_pocket.pdb
REMARK  248 active torsions:
REMARK  status: ('A' for Active; 'I' for Inactive)
REMARK    1  A    between atoms: _1  and  _3
REMARK    2  A    between atoms: _3  and  _4
REMARK    3  A    between atoms: _3  and  _6
REMARK    4  A    between atoms: _6  and  _7
REMARK    5  A    between atoms: _14  and  _15
REMARK    6  A    between atoms: _20  and  _22
REMARK    7  A    between atoms: _22  and  _23
REMARK    8  A    between atoms: _22  and  _25
REMARK    9  A    between atoms: _25  and  _26
REMARK   10  A    between atoms: _29  and  _31
REMARK   11  A    between atoms: _31  and  _32
REMARK   12  A    between atoms: _31  and  _34
REMARK   13  A    between atoms: _34  and  _35
REMARK   14  A    between atoms: _38  and  _40
REMARK   15  A    between atoms: _40  and  _41
REMARK   16  A    between atoms: _40  and  _43
REMARK   17  A    between atoms: _43  and  _44
REMARK   18  A    between atoms: _46  and  _48
REMARK   19  A    between atoms: _48  and  _49
REMARK   20  A    between atoms: _48  and  _51
REMARK   21  A    between atoms: _51  and  _52
REMARK   22  A    between atoms: _55  and  _57
REMARK   23  A    between atoms: _57  and  _58
REMARK   24  A    between atoms: _57  and  _60
REMARK   25  A    between atoms: _60  and  _61
REMARK   26  A    between atoms: _61  and  _62
REMARK   27  A    between atoms: _64  and  _66
REMARK   28  A    between atoms: _66  and  _67
REMARK   29  A    between atoms: _69  and  _71
REMARK   30  A    between atoms: _71  and  _72
REMARK   31  A    between atoms: _71  and  _74
REMARK   32  A    between atoms: _74  and  _75
REMARK   33  A    between atoms: _75  and  _76
REMARK   34  A    between atoms: _79  and  _81
REMARK   35  A    between atoms: _81  and  _82
REMARK   36  A    between atoms: _81  and  _84
REMARK   37  A    between atoms: _84  and  _85
REMARK   38  A    between atoms: _88  and  _90
REMARK   39  A    between atoms: _90  and  _91
REMARK   40  A    between atoms: _90  and  _93
REMARK   41  A    between atoms: _93  and  _94
REMARK   42  A    between atoms: _94  and  _95
REMARK   43  A    between atoms: _98  and  _100
REMARK   44  A    between atoms: _100  and  _101
REMARK   45  A    between atoms: _100  and  _103
REMARK   46  A    between atoms: _106  and  _108
REMARK   47  A    between atoms: _108  and  _109
REMARK   48  A    between atoms: _112  and  _114
REMARK   49  A    between atoms: _114  and  _115
REMARK   50  A    between atoms: _114  and  _117
REMARK   51  A    between atoms: _117  and  _118
REMARK   52  A    between atoms: _121  and  _123
REMARK   53  A    between atoms: _123  and  _124
REMARK   54  A    between atoms: _123  and  _126
REMARK   55  A    between atoms: _126  and  _127
REMARK   56  A    between atoms: _127  and  _128
REMARK   57  A    between atoms: _128  and  _129
REMARK   58  A    between atoms: _138  and  _140
REMARK   59  A    between atoms: _140  and  _141
REMARK   60  A    between atoms: _140  and  _143
REMARK   61  A    between atoms: _143  and  _144
REMARK   62  A    between atoms: _147  and  _149
REMARK   63  A    between atoms: _149  and  _150
REMARK   64  A    between atoms: _149  and  _152
REMARK   65  A    between atoms: _152  and  _153
REMARK   66  A    between atoms: _159  and  _161
REMARK   67  A    between atoms: _161  and  _162
REMARK   68  A    between atoms: _161  and  _164
REMARK   69  A    between atoms: _164  and  _165
REMARK   70  A    between atoms: _165  and  _166
REMARK   71  A    between atoms: _171  and  _173
REMARK   72  A    between atoms: _173  and  _174
REMARK   73  A    between atoms: _176  and  _178
REMARK   74  A    between atoms: _178  and  _179
REMARK   75  A    between atoms: _178  and  _181
REMARK   76  A    between atoms: _183  and  _185
REMARK   77  A    between atoms: _185  and  _186
REMARK   78  A    between atoms: _185  and  _188
REMARK   79  A    between atoms: _188  and  _189
REMARK   80  A    between atoms: _189  and  _190
REMARK   81  A    between atoms: _195  and  _197
REMARK   82  A    between atoms: _197  and  _198
REMARK   83  A    between atoms: _197  and  _200
REMARK   84  A    between atoms: _200  and  _201
REMARK   85  A    between atoms: _207  and  _209
REMARK   86  A    between atoms: _209  and  _210
REMARK   87  A    between atoms: _209  and  _212
REMARK   88  A    between atoms: _212  and  _213
REMARK   89  A    between atoms: _213  and  _214
REMARK   90  A    between atoms: _214  and  _215
REMARK   91  A    between atoms: _224  and  _226
REMARK   92  A    between atoms: _226  and  _227
REMARK   93  A    between atoms: _226  and  _229
REMARK   94  A    between atoms: _229  and  _230
REMARK   95  A    between atoms: _232  and  _234
REMARK   96  A    between atoms: _234  and  _235
REMARK   97  A    between atoms: _234  and  _237
REMARK   98  A    between atoms: _240  and  _242
REMARK   99  A    between atoms: _242  and  _243
REMARK  100  A    between atoms: _242  and  _245
REMARK  101  A    between atoms: _245  and  _246
REMARK  102  A    between atoms: _246  and  _247
REMARK  103  A    between atoms: _250  and  _252
REMARK  104  A    between atoms: _252  and  _253
REMARK  105  A    between atoms: _256  and  _258
REMARK  106  A    between atoms: _258  and  _259
REMARK  107  A    between atoms: _258  and  _261
REMARK  108  A    between atoms: _264  and  _266
REMARK  109  A    between atoms: _266  and  _267
REMARK  110  A    between atoms: _266  and  _269
REMARK  111  A    between atoms: _269  and  _270
REMARK  112  A    between atoms: _270  and  _271
REMARK  113  A    between atoms: _274  and  _276
REMARK  114  A    between atoms: _276  and  _277
REMARK  115  A    between atoms: _276  and  _279
REMARK  116  A    between atoms: _279  and  _280
REMARK  117  A    between atoms: _283  and  _285
REMARK  118  A    between atoms: _285  and  _286
REMARK  119  A    between atoms: _285  and  _288
REMARK  120  A    between atoms: _291  and  _293
REMARK  121  A    between atoms: _293  and  _294
REMARK  122  A    between atoms: _293  and  _296
REMARK  123  A    between atoms: _296  and  _297
REMARK  124  A    between atoms: _302  and  _304
REMARK  125  A    between atoms: _304  and  _305
REMARK  126  A    between atoms: _304  and  _307
REMARK  127  A    between atoms: _307  and  _308
REMARK  128  A    between atoms: _308  and  _309
REMARK  129  A    between atoms: _312  and  _314
REMARK  130  A    between atoms: _314  and  _315
REMARK  131  A    between atoms: _314  and  _317
REMARK  132  A    between atoms: _317  and  _318
REMARK  133  A    between atoms: _321  and  _323
REMARK  134  A    between atoms: _323  and  _324
REMARK  135  A    between atoms: _323  and  _326
REMARK  136  A    between atoms: _326  and  _327
REMARK  137  A    between atoms: _330  and  _332
REMARK  138  A    between atoms: _332  and  _333
REMARK  139  A    between atoms: _332  and  _335
REMARK  140  A    between atoms: _335  and  _336
REMARK  141  A    between atoms: _341  and  _342
REMARK  142  A    between atoms: _344  and  _346
REMARK  143  A    between atoms: _346  and  _347
REMARK  144  A    between atoms: _346  and  _349
REMARK  145  A    between atoms: _349  and  _350
REMARK  146  A    between atoms: _353  and  _355
REMARK  147  A    between atoms: _355  and  _356
REMARK  148  A    between atoms: _355  and  _358
REMARK  149  A    between atoms: _358  and  _359
REMARK  150  A    between atoms: _359  and  _360
REMARK  151  A    between atoms: _362  and  _364
REMARK  152  A    between atoms: _364  and  _365
REMARK  153  A    between atoms: _364  and  _367
REMARK  154  A    between atoms: _367  and  _368
REMARK  155  A    between atoms: _371  and  _373
REMARK  156  A    between atoms: _373  and  _374
REMARK  157  A    between atoms: _377  and  _379
REMARK  158  A    between atoms: _379  and  _380
REMARK  159  A    between atoms: _379  and  _382
REMARK  160  A    between atoms: _382  and  _383
REMARK  161  A    between atoms: _385  and  _387
REMARK  162  A    between atoms: _387  and  _388
REMARK  163  A    between atoms: _387  and  _390
REMARK  164  A    between atoms: _390  and  _391
REMARK  165  A    between atoms: _394  and  _396
REMARK  166  A    between atoms: _396  and  _397
REMARK  167  A    between atoms: _396  and  _399
REMARK  168  A    between atoms: _399  and  _400
REMARK  169  A    between atoms: _400  and  _401
REMARK  170  A    between atoms: _403  and  _405
REMARK  171  A    between atoms: _405  and  _406
REMARK  172  A    between atoms: _405  and  _408
REMARK  173  A    between atoms: _411  and  _413
REMARK  174  A    between atoms: _413  and  _414
REMARK  175  A    between atoms: _413  and  _416
REMARK  176  A    between atoms: _416  and  _417
REMARK  177  A    between atoms: _420  and  _422
REMARK  178  A    between atoms: _422  and  _423
REMARK  179  A    between atoms: _422  and  _425
REMARK  180  A    between atoms: _425  and  _426
REMARK  181  A    between atoms: _429  and  _431
REMARK  182  A    between atoms: _431  and  _432
REMARK  183  A    between atoms: _431  and  _434
REMARK  184  A    between atoms: _434  and  _435
REMARK  185  A    between atoms: _437  and  _439
REMARK  186  A    between atoms: _439  and  _440
REMARK  187  A    between atoms: _439  and  _442
REMARK  188  A    between atoms: _442  and  _443
REMARK  189  A    between atoms: _443  and  _444
REMARK  190  A    between atoms: _447  and  _449
REMARK  191  A    between atoms: _449  and  _450
REMARK  192  A    between atoms: _452  and  _454
REMARK  193  A    between atoms: _454  and  _455
REMARK  194  A    between atoms: _454  and  _457
REMARK  195  A    between atoms: _457  and  _458
REMARK  196  A    between atoms: _458  and  _459
REMARK  197  A    between atoms: _464  and  _466
REMARK  198  A    between atoms: _466  and  _467
REMARK  199  A    between atoms: _469  and  _471
REMARK  200  A    between atoms: _471  and  _472
REMARK  201  A    between atoms: _471  and  _474
REMARK  202  A    between atoms: _474  and  _475
REMARK  203  A    between atoms: _475  and  _476
REMARK  204  A    between atoms: _478  and  _480
REMARK  205  A    between atoms: _480  and  _481
REMARK  206  A    between atoms: _480  and  _483
REMARK  207  A    between atoms: _483  and  _484
REMARK  208  A    between atoms: _487  and  _489
REMARK  209  A    between atoms: _489  and  _490
REMARK  210  A    between atoms: _489  and  _492
REMARK  211  A    between atoms: _492  and  _493
REMARK  212  A    between atoms: _499  and  _501
REMARK  213  A    between atoms: _501  and  _502
REMARK  214  A    between atoms: _501  and  _504
REMARK  215  A    between atoms: _504  and  _505
REMARK  216  A    between atoms: _508  and  _510
REMARK  217  A    between atoms: _510  and  _511
REMARK  218  A    between atoms: _510  and  _513
REMARK  219  A    between atoms: _513  and  _514
REMARK  220  A    between atoms: _517  and  _519
REMARK  221  A    between atoms: _519  and  _520
REMARK  222  A    between atoms: _519  and  _522
REMARK  223  A    between atoms: _522  and  _523
REMARK  224  A    between atoms: _529  and  _531
REMARK  225  A    between atoms: _531  and  _532
REMARK  226  A    between atoms: _531  and  _534
REMARK  227  A    between atoms: _534  and  _535
REMARK  228  A    between atoms: _535  and  _536
REMARK  229  A    between atoms: _538  and  _540
REMARK  230  A    between atoms: _540  and  _541
REMARK  231  A    between atoms: _540  and  _543
REMARK  232  A    between atoms: _543  and  _544
REMARK  233  A    between atoms: _544  and  _545
REMARK  234  A    between atoms: _545  and  _546
REMARK  235  A    between atoms: _546  and  _547
REMARK  236  A    between atoms: _551  and  _553
REMARK  237  A    between atoms: _553  and  _554
REMARK  238  A    between atoms: _553  and  _556
REMARK  239  A    between atoms: _556  and  _557
REMARK  240  A    between atoms: _563  and  _565
REMARK  241  A    between atoms: _565  and  _566
REMARK  242  A    between atoms: _565  and  _568
REMARK  243  A    between atoms: _568  and  _569
REMARK  244  A    between atoms: _574  and  _576
REMARK  245  A    between atoms: _576  and  _577
REMARK  246  A    between atoms: _576  and  _579
REMARK  247  A    between atoms: _579  and  _580
REMARK  248  A    between atoms: _585  and  _586
REMARK                            x       y       z     vdW  Elec       q    Type
REMARK                         _______ _______ _______ _____ _____    ______ ____
ROOT
ATOM      1  CB  HIS A   1     -23.471  15.248 -20.275  0.00  0.00    +0.072 C 
ENDROOT
BRANCH   1   2
ATOM      2  CG  HIS A   1     -22.839  16.547 -19.905  0.00  0.00    +0.082 A 
ATOM      3  ND1 HIS A   1     -22.911  17.072 -18.633  0.00  0.00    -0.227 NA
ATOM      4  CE1 HIS A   1     -22.278  18.232 -18.600  0.00  0.00    +0.199 A 
ATOM      5  NE2 HIS A   1     -21.791  18.474 -19.805  0.00  0.00    -0.221 NA
ATOM      6  CD2 HIS A   1     -22.127  17.434 -20.639  0.00  0.00    +0.115 A 
ENDBRANCH   1   2
BRANCH   1   7
ATOM      7  CA  HIS A   1     -24.972  15.354 -20.526  0.00  0.00    +0.139 C 
BRANCH   7   8
ATOM      8  N   HIS A   1     -25.543  14.052 -20.839  0.00  0.00    -0.239 NA
ATOM      9  H   HIS A   1     -24.928  13.214 -20.874  0.00  0.00    +0.142 HD
ENDBRANCH   7   8
BRANCH   7  10
ATOM     10  C   HIS A   1     -25.271  16.367 -21.630  0.00  0.00    +0.224 C 
ATOM     11  O   HIS A   1     -25.710  17.474 -21.354  0.00  0.00    -0.287 OA
ENDBRANCH   7  10
ENDBRANCH   1   7
TORSDOF 4
REMARK  Name = ../refined-set-2016/4a4w/4a4w_pocket.pdb
REMARK  248 active torsions:
REMARK  status: ('A' for Active; 'I' for Inactive)
REMARK    1  A    between atoms: _1  and  _3
REMARK    2  A    between atoms: _3  and  _4
REMARK    3  A    between atoms: _3  and  _6
REMARK    4  A    between atoms: _6  and  _7
REMARK    5  A    between atoms: _14  and  _15
REMARK    6  A    between atoms: _20  and  _22
REMARK    7  A    between atoms: _22  and  _23
REMARK    8  A    between atoms: _22  and  _25
REMARK    9  A    between atoms: _25  and  _26
REMARK   10  A    between atoms: _29  and  _31
REMARK   11  A    between atoms: _31  and  _32
REMARK   12  A    between atoms: _31  and  _34
REMARK   13  A    between atoms: _34  and  _35
REMARK   14  A    between atoms: _38  and  _40
REMARK   15  A    between atoms: _40  and  _41
REMARK   16  A    between atoms: _40  and  _43
REMARK   17  A    between atoms: _43  and  _44
REMARK   18  A    between atoms: _46  and  _48
REMARK   19  A    between atoms: _48  and  _49
REMARK   20  A    between atoms: _48  and  _51
REMARK   21  A    between atoms: _51  and  _52
REMARK   22  A    between atoms: _55  and  _57
REMARK   23  A    between atoms: _57  and  _58
REMARK   24  A    between atoms: _57  and  _60
REMARK   25  A    between atoms: _60  and  _61
REMARK   26  A    between atoms: _61  and  _62
REMARK   27  A    between atoms: _64  and  _66
REMARK   28  A    between atoms: _66  and  _67
REMARK   29  A    between atoms: _69  and  _71
REMARK   30  A    between atoms: _71  and  _72
REMARK   31  A    between atoms: _71  and  _74
REMARK   32  A    between atoms: _74  and  _75
REMARK   33  A    between atoms: _75  and  _76
REMARK   34  A    between atoms: _79  and  _81
REMARK   35  A    between atoms: _81  and  _82
REMARK   36  A    between atoms: _81  and  _84
REMARK   37  A    between atoms: _84  and  _85
REMARK   38  A    between atoms: _88  and  _90
REMARK   39  A    between atoms: _90  and  _91
REMARK   40  A    between atoms: _90  and  _93
REMARK   41  A    between atoms: _93  and  _94
REMARK   42  A    between atoms: _94  and  _95
REMARK   43  A    between atoms: _98  and  _100
REMARK   44  A    between atoms: _100  and  _101
REMARK   45  A    between atoms: _100  and  _103
REMARK   46  A    between atoms: _106  and  _108
REMARK   47  A    between atoms: _108  and  _109
REMARK   48  A    between atoms: _112  and  _114
REMARK   49  A    between atoms: _114  and  _115
REMARK   50  A    between atoms: _114  and  _117
REMARK   51  A    between atoms: _117  and  _118
REMARK   52  A    between atoms: _121  and  _123
REMARK   53  A    between atoms: _123  and  _124
REMARK   54  A    between atoms: _123  and  _126
REMARK   55  A    between atoms: _126  and  _127
REMARK   56  A    between atoms: _127  and  _128
REMARK   57  A    between atoms: _128  and  _129
REMARK   58  A    between atoms: _138  and  _140
REMARK   59  A    between atoms: _140  and  _141
REMARK   60  A    between atoms: _140  and  _143
REMARK   61  A    between atoms: _143  and  _144
REMARK   62  A    between atoms: _147  and  _149
REMARK   63  A    between atoms: _149  and  _150
REMARK   64  A    between atoms: _149  and  _152
REMARK   65  A    between atoms: _152  and  _153
REMARK   66  A    between atoms: _159  and  _161
REMARK   67  A    between atoms: _161  and  _162
REMARK   68  A    between atoms: _161  and  _164
REMARK   69  A    between atoms: _164  and  _165
REMARK   70  A    between atoms: _165  and  _166
REMARK   71  A    between atoms: _171  and  _173
REMARK   72  A    between atoms: _173  and  _174
REMARK   73  A    between atoms: _176  and  _178
REMARK   74  A    between atoms: _178  and  _179
REMARK   75  A    between atoms: _178  and  _181
REMARK   76  A    between atoms: _183  and  _185
REMARK   77  A    between atoms: _185  and  _186
REMARK   78  A    between atoms: _185  and  _188
REMARK   79  A    between atoms: _188  and  _189
REMARK   80  A    between atoms: _189  and  _190
REMARK   81  A    between atoms: _195  and  _197
REMARK   82  A    between atoms: _197  and  _198
REMARK   83  A    between atoms: _197  and  _200
REMARK   84  A    between atoms: _200  and  _201
REMARK   85  A    between atoms: _207  and  _209
REMARK   86  A    between atoms: _209  and  _210
REMARK   87  A    between atoms: _209  and  _212
REMARK   88  A    between atoms: _212  and  _213
REMARK   89  A    between atoms: _213  and  _214
REMARK   90  A    between atoms: _214  and  _215
REMARK   91  A    between atoms: _224  and  _226
REMARK   92  A    between atoms: _226  and  _227
REMARK   93  A    between atoms: _226  and  _229
REMARK   94  A    between atoms: _229  and  _230
REMARK   95  A    between atoms: _232  and  _234
REMARK   96  A    between atoms: _234  and  _235
REMARK   97  A    between atoms: _234  and  _237
REMARK   98  A    between atoms: _240  and  _242
REMARK   99  A    between atoms: _242  and  _243
REMARK  100  A    between atoms: _242  and  _245
REMARK  101  A    between atoms: _245  and  _246
REMARK  102  A    between atoms: _246  and  _247
REMARK  103  A    between atoms: _250  and  _252
REMARK  104  A    between atoms: _252  and  _253
REMARK  105  A    between atoms: _256  and  _258
REMARK  106  A    between atoms: _258  and  _259
REMARK  107  A    between atoms: _258  and  _261
REMARK  108  A    between atoms: _264  and  _266
REMARK  109  A    between atoms: _266  and  _267
REMARK  110  A    between atoms: _266  and  _269
REMARK  111  A    between atoms: _269  and  _270
REMARK  112  A    between atoms: _270  and  _271
REMARK  113  A    between atoms: _274  and  _276
REMARK  114  A    between atoms: _276  and  _277
REMARK  115  A    between atoms: _276  and  _279
REMARK  116  A    between atoms: _279  and  _280
REMARK  117  A    between atoms: _283  and  _285
REMARK  118  A    between atoms: _285  and  _286
REMARK  119  A    between atoms: _285  and  _288
REMARK  120  A    between atoms: _291  and  _293
REMARK  121  A    between atoms: _293  and  _294
REMARK  122  A    between atoms: _293  and  _296
REMARK  123  A    between atoms: _296  and  _297
REMARK  124  A    between atoms: _302  and  _304
REMARK  125  A    between atoms: _304  and  _305
REMARK  126  A    between atoms: _304  and  _307
REMARK  127  A    between atoms: _307  and  _308
REMARK  128  A    between atoms: _308  and  _309
REMARK  129  A    between atoms: _312  and  _314
REMARK  130  A    between atoms: _314  and  _315
REMARK  131  A    between atoms: _314  and  _317
REMARK  132  A    between atoms: _317  and  _318
REMARK  133  A    between atoms: _321  and  _323
REMARK  134  A    between atoms: _323  and  _324
REMARK  135  A    between atoms: _323  and  _326
REMARK  136  A    between atoms: _326  and  _327
REMARK  137  A    between atoms: _330  and  _332
REMARK  138  A    between atoms: _332  and  _333
REMARK  139  A    between atoms: _332  and  _335
REMARK  140  A    between atoms: _335  and  _336
REMARK  141  A    between atoms: _341  and  _342
REMARK  142  A    between atoms: _344  and  _346
REMARK  143  A    between atoms: _346  and  _347
REMARK  144  A    between atoms: _346  and  _349
REMARK  145  A    between atoms: _349  and  _350
REMARK  146  A    between atoms: _353  and  _355
REMARK  147  A    between atoms: _355  and  _356
REMARK  148  A    between atoms: _355  and  _358
REMARK  149  A    between atoms: _358  and  _359
REMARK  150  A    between atoms: _359  and  _360
REMARK  151  A    between atoms: _362  and  _364
REMARK  152  A    between atoms: _364  and  _365
REMARK  153  A    between atoms: _364  and  _367
REMARK  154  A    between atoms: _367  and  _368
REMARK  155  A    between atoms: _371  and  _373
REMARK  156  A    between atoms: _373  and  _374
REMARK  157  A    between atoms: _377  and  _379
REMARK  158  A    between atoms: _379  and  _380
REMARK  159  A    between atoms: _379  and  _382
REMARK  160  A    between atoms: _382  and  _383
REMARK  161  A    between atoms: _385  and  _387
REMARK  162  A    between atoms: _387  and  _388
REMARK  163  A    between atoms: _387  and  _390
REMARK  164  A    between atoms: _390  and  _391
REMARK  165  A    between atoms: _394  and  _396
REMARK  166  A    between atoms: _396  and  _397
REMARK  167  A    between atoms: _396  and  _399
REMARK  168  A    between atoms: _399  and  _400
REMARK  169  A    between atoms: _400  and  _401
REMARK  170  A    between atoms: _403  and  _405
REMARK  171  A    between atoms: _405  and  _406
REMARK  172  A    between atoms: _405  and  _408
REMARK  173  A    between atoms: _411  and  _413
REMARK  174  A    between atoms: _413  and  _414
REMARK  175  A    between atoms: _413  and  _416
REMARK  176  A    between atoms: _416  and  _417
REMARK  177  A    between atoms: _420  and  _422
REMARK  178  A    between atoms: _422  and  _423
REMARK  179  A    between atoms: _422  and  _425
REMARK  180  A    between atoms: _425  and  _426
REMARK  181  A    between atoms: _429  and  _431
REMARK  182  A    between atoms: _431  and  _432
REMARK  183  A    between atoms: _431  and  _434
REMARK  184  A    between atoms: _434  and  _435
REMARK  185  A    between atoms: _437  and  _439
REMARK  186  A    between atoms: _439  and  _440
REMARK  187  A    between atoms: _439  and  _442
REMARK  188  A    between atoms: _442  and  _443
REMARK  189  A    between atoms: _443  and  _444
REMARK  190  A    between atoms: _447  and  _449
REMARK  191  A    between atoms: _449  and  _450
REMARK  192  A    between atoms: _452  and  _454
REMARK  193  A    between atoms: _454  and  _455
REMARK  194  A    between atoms: _454  and  _457
REMARK  195  A    between atoms: _457  and  _458
REMARK  196  A    between atoms: _458  and  _459
REMARK  197  A    between atoms: _464  and  _466
REMARK  198  A    between atoms: _466  and  _467
REMARK  199  A    between atoms: _469  and  _471
REMARK  200  A    between atoms: _471  and  _472
REMARK  201  A    between atoms: _471  and  _474
REMARK  202  A    between atoms: _474  and  _475
REMARK  203  A    between atoms: _475  and  _476
REMARK  204  A    between atoms: _478  and  _480
REMARK  205  A    between atoms: _480  and  _481
REMARK  206  A    between atoms: _480  and  _483
REMARK  207  A    between atoms: _483  and  _484
REMARK  208  A    between atoms: _487  and  _489
REMARK  209  A    between atoms: _489  and  _490
REMARK  210  A    between atoms: _489  and  _492
REMARK  211  A    between atoms: _492  and  _493
REMARK  212  A    between atoms: _499  and  _501
REMARK  213  A    between atoms: _501  and  _502
REMARK  214  A    between atoms: _501  and  _504
REMARK  215  A    between atoms: _504  and  _505
REMARK  216  A    between atoms: _508  and  _510
REMARK  217  A    between atoms: _510  and  _511
REMARK  218  A    between atoms: _510  and  _513
REMARK  219  A    between atoms: _513  and  _514
REMARK  220  A    between atoms: _517  and  _519
REMARK  221  A    between atoms: _519  and  _520
REMARK  222  A    between atoms: _519  and  _522
REMARK  223  A    between atoms: _522  and  _523
REMARK  224  A    between atoms: _529  and  _531
REMARK  225  A    between atoms: _531  and  _532
REMARK  226  A    between atoms: _531  and  _534
REMARK  227  A    between atoms: _534  and  _535
REMARK  228  A    between atoms: _535  and  _536
REMARK  229  A    between atoms: _538  and  _540
REMARK  230  A    between atoms: _540  and  _541
REMARK  231  A    between atoms: _540  and  _543
REMARK  232  A    between atoms: _543  and  _544
REMARK  233  A    between atoms: _544  and  _545
REMARK  234  A    between atoms: _545  and  _546
REMARK  235  A    between atoms: _546  and  _547
REMARK  236  A    between atoms: _551  and  _553
REMARK  237  A    between atoms: _553  and  _554
REMARK  238  A    between atoms: _553  and  _556
REMARK  239  A    between atoms: _556  and  _557
REMARK  240  A    between atoms: _563  and  _565
REMARK  241  A    between atoms: _565  and  _566
REMARK  242  A    between atoms: _565  and  _568
REMARK  243  A    between atoms: _568  and  _569
REMARK  244  A    between atoms: _574  and  _576
REMARK  245  A    between atoms: _576  and  _577
REMARK  246  A    between atoms: _576  and  _579
REMARK  247  A    between atoms: _579  and  _580
REMARK  248  A    between atoms: _585  and  _586
REMARK                            x       y       z     vdW  Elec       q    Type
REMARK                         _______ _______ _______ _____ _____    ______ ____
ROOT
ATOM      1  CG  TYR A   1     -20.769  19.902 -25.713  0.00  0.00    -0.020 A 
ATOM      2  CD2 TYR A   1     -20.499  20.947 -24.832  0.00  0.00    -0.001 A 
ATOM      3  CE2 TYR A   1     -20.061  20.704 -23.527  0.00  0.00    +0.036 A 
ATOM      4  CZ  TYR A   1     -19.913  19.403 -23.091  0.00  0.00    +0.134 A 
ATOM      5  CE1 TYR A   1     -20.186  18.343 -23.945  0.00  0.00    +0.036 A 
ATOM      6  CD1 TYR A   1     -20.611  18.597 -25.246  0.00  0.00    -0.001 A 
ENDROOT
BRANCH   4   7
ATOM      7  OH  TYR A   1     -19.491  19.157 -21.796  0.00  0.00    -0.506 OA
ATOM      8  HH  TYR A   1     -19.438  18.180 -21.647  0.00  0.00    +0.292 HD
ENDBRANCH   4   7
BRANCH   1   9
ATOM      9  CB  TYR A   1     -21.236  20.176 -27.139  0.00  0.00    +0.051 C 
BRANCH   9  10
ATOM     10  CA  TYR A   1     -20.400  19.466 -28.217  0.00  0.00    +0.137 C 
BRANCH  10  11
ATOM     11  N   TYR A   1     -19.000  19.915 -28.173  0.00  0.00    -0.239 NA
ATOM     12  H   TYR A   1     -18.775  20.804 -27.682  0.00  0.00    +0.142 HD
ENDBRANCH  10  11
BRANCH  10  13
ATOM     13  C   TYR A   1     -21.066  19.588 -29.597  0.00  0.00    +0.224 C 
ATOM     14  O   TYR A   1     -22.008  18.852 -29.901  0.00  0.00    -0.287 OA
ENDBRANCH  10  13
ENDBRANCH   9  10
ENDBRANCH   1   9
TORSDOF 5
REMARK  Name = ../refined-set-2016/4a4w/4a4w_pocket.pdb
REMARK  248 active torsions:
REMARK  status: ('A' for Active; 'I' for Inactive)
REMARK    1  A    between atoms: _1  and  _3
REMARK    2  A    between atoms: _3  and  _4
REMARK    3  A    between atoms: _3  and  _6
REMARK    4  A    between atoms: _6  and  _7
REMARK    5  A    between atoms: _14  and  _15
REMARK    6  A    between atoms: _20  and  _22
REMARK    7  A    between atoms: _22  and  _23
REMARK    8  A    between atoms: _22  and  _25
REMARK    9  A    between atoms: _25  and  _26
REMARK   10  A    between atoms: _29  and  _31
REMARK   11  A    between atoms: _31  and  _32
REMARK   12  A    between atoms: _31  and  _34
REMARK   13  A    between atoms: _34  and  _35
REMARK   14  A    between atoms: _38  and  _40
REMARK   15  A    between atoms: _40  and  _41
REMARK   16  A    between atoms: _40  and  _43
REMARK   17  A    between atoms: _43  and  _44
REMARK   18  A    between atoms: _46  and  _48
REMARK   19  A    between atoms: _48  and  _49
REMARK   20  A    between atoms: _48  and  _51
REMARK   21  A    between atoms: _51  and  _52
REMARK   22  A    between atoms: _55  and  _57
REMARK   23  A    between atoms: _57  and  _58
REMARK   24  A    between atoms: _57  and  _60
REMARK   25  A    between atoms: _60  and  _61
REMARK   26  A    between atoms: _61  and  _62
REMARK   27  A    between atoms: _64  and  _66
REMARK   28  A    between atoms: _66  and  _67
REMARK   29  A    between atoms: _69  and  _71
REMARK   30  A    between atoms: _71  and  _72
REMARK   31  A    between atoms: _71  and  _74
REMARK   32  A    between atoms: _74  and  _75
REMARK   33  A    between atoms: _75  and  _76
REMARK   34  A    between atoms: _79  and  _81
REMARK   35  A    between atoms: _81  and  _82
REMARK   36  A    between atoms: _81  and  _84
REMARK   37  A    between atoms: _84  and  _85
REMARK   38  A    between atoms: _88  and  _90
REMARK   39  A    between atoms: _90  and  _91
REMARK   40  A    between atoms: _90  and  _93
REMARK   41  A    between atoms: _93  and  _94
REMARK   42  A    between atoms: _94  and  _95
REMARK   43  A    between atoms: _98  and  _100
REMARK   44  A    between atoms: _100  and  _101
REMARK   45  A    between atoms: _100  and  _103
REMARK   46  A    between atoms: _106  and  _108
REMARK   47  A    between atoms: _108  and  _109
REMARK   48  A    between atoms: _112  and  _114
REMARK   49  A    between atoms: _114  and  _115
REMARK   50  A    between atoms: _114  and  _117
REMARK   51  A    between atoms: _117  and  _118
REMARK   52  A    between atoms: _121  and  _123
REMARK   53  A    between atoms: _123  and  _124
REMARK   54  A    between atoms: _123  and  _126
REMARK   55  A    between atoms: _126  and  _127
REMARK   56  A    between atoms: _127  and  _128
REMARK   57  A    between atoms: _128  and  _129
REMARK   58  A    between atoms: _138  and  _140
REMARK   59  A    between atoms: _140  and  _141
REMARK   60  A    between atoms: _140  and  _143
REMARK   61  A    between atoms: _143  and  _144
REMARK   62  A    between atoms: _147  and  _149
REMARK   63  A    between atoms: _149  and  _150
REMARK   64  A    between atoms: _149  and  _152
REMARK   65  A    between atoms: _152  and  _153
REMARK   66  A    between atoms: _159  and  _161
REMARK   67  A    between atoms: _161  and  _162
REMARK   68  A    between atoms: _161  and  _164
REMARK   69  A    between atoms: _164  and  _165
REMARK   70  A    between atoms: _165  and  _166
REMARK   71  A    between atoms: _171  and  _173
REMARK   72  A    between atoms: _173  and  _174
REMARK   73  A    between atoms: _176  and  _178
REMARK   74  A    between atoms: _178  and  _179
REMARK   75  A    between atoms: _178  and  _181
REMARK   76  A    between atoms: _183  and  _185
REMARK   77  A    between atoms: _185  and  _186
REMARK   78  A    between atoms: _185  and  _188
REMARK   79  A    between atoms: _188  and  _189
REMARK   80  A    between atoms: _189  and  _190
REMARK   81  A    between atoms: _195  and  _197
REMARK   82  A    between atoms: _197  and  _198
REMARK   83  A    between atoms: _197  and  _200
REMARK   84  A    between atoms: _200  and  _201
REMARK   85  A    between atoms: _207  and  _209
REMARK   86  A    between atoms: _209  and  _210
REMARK   87  A    between atoms: _209  and  _212
REMARK   88  A    between atoms: _212  and  _213
REMARK   89  A    between atoms: _213  and  _214
REMARK   90  A    between atoms: _214  and  _215
REMARK   91  A    between atoms: _224  and  _226
REMARK   92  A    between atoms: _226  and  _227
REMARK   93  A    between atoms: _226  and  _229
REMARK   94  A    between atoms: _229  and  _230
REMARK   95  A    between atoms: _232  and  _234
REMARK   96  A    between atoms: _234  and  _235
REMARK   97  A    between atoms: _234  and  _237
REMARK   98  A    between atoms: _240  and  _242
REMARK   99  A    between atoms: _242  and  _243
REMARK  100  A    between atoms: _242  and  _245
REMARK  101  A    between atoms: _245  and  _246
REMARK  102  A    between atoms: _246  and  _247
REMARK  103  A    between atoms: _250  and  _252
REMARK  104  A    between atoms: _252  and  _253
REMARK  105  A    between atoms: _256  and  _258
REMARK  106  A    between atoms: _258  and  _259
REMARK  107  A    between atoms: _258  and  _261
REMARK  108  A    between atoms: _264  and  _266
REMARK  109  A    between atoms: _266  and  _267
REMARK  110  A    between atoms: _266  and  _269
REMARK  111  A    between atoms: _269  and  _270
REMARK  112  A    between atoms: _270  and  _271
REMARK  113  A    between atoms: _274  and  _276
REMARK  114  A    between atoms: _276  and  _277
REMARK  115  A    between atoms: _276  and  _279
REMARK  116  A    between atoms: _279  and  _280
REMARK  117  A    between atoms: _283  and  _285
REMARK  118  A    between atoms: _285  and  _286
REMARK  119  A    between atoms: _285  and  _288
REMARK  120  A    between atoms: _291  and  _293
REMARK  121  A    between atoms: _293  and  _294
REMARK  122  A    between atoms: _293  and  _296
REMARK  123  A    between atoms: _296  and  _297
REMARK  124  A    between atoms: _302  and  _304
REMARK  125  A    between atoms: _304  and  _305
REMARK  126  A    between atoms: _304  and  _307
REMARK  127  A    between atoms: _307  and  _308
REMARK  128  A    between atoms: _308  and  _309
REMARK  129  A    between atoms: _312  and  _314
REMARK  130  A    between atoms: _314  and  _315
REMARK  131  A    between atoms: _314  and  _317
REMARK  132  A    between atoms: _317  and  _318
REMARK  133  A    between atoms: _321  and  _323
REMARK  134  A    between atoms: _323  and  _324
REMARK  135  A    between atoms: _323  and  _326
REMARK  136  A    between atoms: _326  and  _327
REMARK  137  A    between atoms: _330  and  _332
REMARK  138  A    between atoms: _332  and  _333
REMARK  139  A    between atoms: _332  and  _335
REMARK  140  A    between atoms: _335  and  _336
REMARK  141  A    between atoms: _341  and  _342
REMARK  142  A    between atoms: _344  and  _346
REMARK  143  A    between atoms: _346  and  _347
REMARK  144  A    between atoms: _346  and  _349
REMARK  145  A    between atoms: _349  and  _350
REMARK  146  A    between atoms: _353  and  _355
REMARK  147  A    between atoms: _355  and  _356
REMARK  148  A    between atoms: _355  and  _358
REMARK  149  A    between atoms: _358  and  _359
REMARK  150  A    between atoms: _359  and  _360
REMARK  151  A    between atoms: _362  and  _364
REMARK  152  A    between atoms: _364  and  _365
REMARK  153  A    between atoms: _364  and  _367
REMARK  154  A    between atoms: _367  and  _368
REMARK  155  A    between atoms: _371  and  _373
REMARK  156  A    between atoms: _373  and  _374
REMARK  157  A    between atoms: _377  and  _379
REMARK  158  A    between atoms: _379  and  _380
REMARK  159  A    between atoms: _379  and  _382
REMARK  160  A    between atoms: _382  and  _383
REMARK  161  A    between atoms: _385  and  _387
REMARK  162  A    between atoms: _387  and  _388
REMARK  163  A    between atoms: _387  and  _390
REMARK  164  A    between atoms: _390  and  _391
REMARK  165  A    between atoms: _394  and  _396
REMARK  166  A    between atoms: _396  and  _397
REMARK  167  A    between atoms: _396  and  _399
REMARK  168  A    between atoms: _399  and  _400
REMARK  169  A    between atoms: _400  and  _401
REMARK  170  A    between atoms: _403  and  _405
REMARK  171  A    between atoms: _405  and  _406
REMARK  172  A    between atoms: _405  and  _408
REMARK  173  A    between atoms: _411  and  _413
REMARK  174  A    between atoms: _413  and  _414
REMARK  175  A    between atoms: _413  and  _416
REMARK  176  A    between atoms: _416  and  _417
REMARK  177  A    between atoms: _420  and  _422
REMARK  178  A    between atoms: _422  and  _423
REMARK  179  A    between atoms: _422  and  _425
REMARK  180  A    between atoms: _425  and  _426
REMARK  181  A    between atoms: _429  and  _431
REMARK  182  A    between atoms: _431  and  _432
REMARK  183  A    between atoms: _431  and  _434
REMARK  184  A    between atoms: _434  and  _435
REMARK  185  A    between atoms: _437  and  _439
REMARK  186  A    between atoms: _439  and  _440
REMARK  187  A    between atoms: _439  and  _442
REMARK  188  A    between atoms: _442  and  _443
REMARK  189  A    between atoms: _443  and  _444
REMARK  190  A    between atoms: _447  and  _449
REMARK  191  A    between atoms: _449  and  _450
REMARK  192  A    between atoms: _452  and  _454
REMARK  193  A    between atoms: _454  and  _455
REMARK  194  A    between atoms: _454  and  _457
REMARK  195  A    between atoms: _457  and  _458
REMARK  196  A    between atoms: _458  and  _459
REMARK  197  A    between atoms: _464  and  _466
REMARK  198  A    between atoms: _466  and  _467
REMARK  199  A    between atoms: _469  and  _471
REMARK  200  A    between atoms: _471  and  _472
REMARK  201  A    between atoms: _471  and  _474
REMARK  202  A    between atoms: _474  and  _475
REMARK  203  A    between atoms: _475  and  _476
REMARK  204  A    between atoms: _478  and  _480
REMARK  205  A    between atoms: _480  and  _481
REMARK  206  A    between atoms: _480  and  _483
REMARK  207  A    between atoms: _483  and  _484
REMARK  208  A    between atoms: _487  and  _489
REMARK  209  A    between atoms: _489  and  _490
REMARK  210  A    between atoms: _489  and  _492
REMARK  211  A    between atoms: _492  and  _493
REMARK  212  A    between atoms: _499  and  _501
REMARK  213  A    between atoms: _501  and  _502
REMARK  214  A    between atoms: _501  and  _504
REMARK  215  A    between atoms: _504  and  _505
REMARK  216  A    between atoms: _508  and  _510
REMARK  217  A    between atoms: _510  and  _511
REMARK  218  A    between atoms: _510  and  _513
REMARK  219  A    between atoms: _513  and  _514
REMARK  220  A    between atoms: _517  and  _519
REMARK  221  A    between atoms: _519  and  _520
REMARK  222  A    between atoms: _519  and  _522
REMARK  223  A    between atoms: _522  and  _523
REMARK  224  A    between atoms: _529  and  _531
REMARK  225  A    between atoms: _531  and  _532
REMARK  226  A    between atoms: _531  and  _534
REMARK  227  A    between atoms: _534  and  _535
REMARK  228  A    between atoms: _535  and  _536
REMARK  229  A    between atoms: _538  and  _540
REMARK  230  A    between atoms: _540  and  _541
REMARK  231  A    between atoms: _540  and  _543
REMARK  232  A    between atoms: _543  and  _544
REMARK  233  A    between atoms: _544  and  _545
REMARK  234  A    between atoms: _545  and  _546
REMARK  235  A    between atoms: _546  and  _547
REMARK  236  A    between atoms: _551  and  _553
REMARK  237  A    between atoms: _553  and  _554
REMARK  238  A    between atoms: _553  and  _556
REMARK  239  A    between atoms: _556  and  _557
REMARK  240  A    between atoms: _563  and  _565
REMARK  241  A    between atoms: _565  and  _566
REMARK  242  A    between atoms: _565  and  _568
REMARK  243  A    between atoms: _568  and  _569
REMARK  244  A    between atoms: _574  and  _576
REMARK  245  A    between atoms: _576  and  _577
REMARK  246  A    between atoms: _576  and  _579
REMARK  247  A    between atoms: _579  and  _580
REMARK  248  A    between atoms: _585  and  _586
REMARK                            x       y       z     vdW  Elec       q    Type
REMARK                         _______ _______ _______ _____ _____    ______ ____
ROOT
ATOM      1  O   HOH     1      -7.897   9.532 -12.444  0.00  0.00    +0.000 OA
ENDROOT
TORSDOF 0
REMARK  Name = ../refined-set-2016/4a4w/4a4w_pocket.pdb
REMARK  248 active torsions:
REMARK  status: ('A' for Active; 'I' for Inactive)
REMARK    1  A    between atoms: _1  and  _3
REMARK    2  A    between atoms: _3  and  _4
REMARK    3  A    between atoms: _3  and  _6
REMARK    4  A    between atoms: _6  and  _7
REMARK    5  A    between atoms: _14  and  _15
REMARK    6  A    between atoms: _20  and  _22
REMARK    7  A    between atoms: _22  and  _23
REMARK    8  A    between atoms: _22  and  _25
REMARK    9  A    between atoms: _25  and  _26
REMARK   10  A    between atoms: _29  and  _31
REMARK   11  A    between atoms: _31  and  _32
REMARK   12  A    between atoms: _31  and  _34
REMARK   13  A    between atoms: _34  and  _35
REMARK   14  A    between atoms: _38  and  _40
REMARK   15  A    between atoms: _40  and  _41
REMARK   16  A    between atoms: _40  and  _43
REMARK   17  A    between atoms: _43  and  _44
REMARK   18  A    between atoms: _46  and  _48
REMARK   19  A    between atoms: _48  and  _49
REMARK   20  A    between atoms: _48  and  _51
REMARK   21  A    between atoms: _51  and  _52
REMARK   22  A    between atoms: _55  and  _57
REMARK   23  A    between atoms: _57  and  _58
REMARK   24  A    between atoms: _57  and  _60
REMARK   25  A    between atoms: _60  and  _61
REMARK   26  A    between atoms: _61  and  _62
REMARK   27  A    between atoms: _64  and  _66
REMARK   28  A    between atoms: _66  and  _67
REMARK   29  A    between atoms: _69  and  _71
REMARK   30  A    between atoms: _71  and  _72
REMARK   31  A    between atoms: _71  and  _74
REMARK   32  A    between atoms: _74  and  _75
REMARK   33  A    between atoms: _75  and  _76
REMARK   34  A    between atoms: _79  and  _81
REMARK   35  A    between atoms: _81  and  _82
REMARK   36  A    between atoms: _81  and  _84
REMARK   37  A    between atoms: _84  and  _85
REMARK   38  A    between atoms: _88  and  _90
REMARK   39  A    between atoms: _90  and  _91
REMARK   40  A    between atoms: _90  and  _93
REMARK   41  A    between atoms: _93  and  _94
REMARK   42  A    between atoms: _94  and  _95
REMARK   43  A    between atoms: _98  and  _100
REMARK   44  A    between atoms: _100  and  _101
REMARK   45  A    between atoms: _100  and  _103
REMARK   46  A    between atoms: _106  and  _108
REMARK   47  A    between atoms: _108  and  _109
REMARK   48  A    between atoms: _112  and  _114
REMARK   49  A    between atoms: _114  and  _115
REMARK   50  A    between atoms: _114  and  _117
REMARK   51  A    between atoms: _117  and  _118
REMARK   52  A    between atoms: _121  and  _123
REMARK   53  A    between atoms: _123  and  _124
REMARK   54  A    between atoms: _123  and  _126
REMARK   55  A    between atoms: _126  and  _127
REMARK   56  A    between atoms: _127  and  _128
REMARK   57  A    between atoms: _128  and  _129
REMARK   58  A    between atoms: _138  and  _140
REMARK   59  A    between atoms: _140  and  _141
REMARK   60  A    between atoms: _140  and  _143
REMARK   61  A    between atoms: _143  and  _144
REMARK   62  A    between atoms: _147  and  _149
REMARK   63  A    between atoms: _149  and  _150
REMARK   64  A    between atoms: _149  and  _152
REMARK   65  A    between atoms: _152  and  _153
REMARK   66  A    between atoms: _159  and  _161
REMARK   67  A    between atoms: _161  and  _162
REMARK   68  A    between atoms: _161  and  _164
REMARK   69  A    between atoms: _164  and  _165
REMARK   70  A    between atoms: _165  and  _166
REMARK   71  A    between atoms: _171  and  _173
REMARK   72  A    between atoms: _173  and  _174
REMARK   73  A    between atoms: _176  and  _178
REMARK   74  A    between atoms: _178  and  _179
REMARK   75  A    between atoms: _178  and  _181
REMARK   76  A    between atoms: _183  and  _185
REMARK   77  A    between atoms: _185  and  _186
REMARK   78  A    between atoms: _185  and  _188
REMARK   79  A    between atoms: _188  and  _189
REMARK   80  A    between atoms: _189  and  _190
REMARK   81  A    between atoms: _195  and  _197
REMARK   82  A    between atoms: _197  and  _198
REMARK   83  A    between atoms: _197  and  _200
REMARK   84  A    between atoms: _200  and  _201
REMARK   85  A    between atoms: _207  and  _209
REMARK   86  A    between atoms: _209  and  _210
REMARK   87  A    between atoms: _209  and  _212
REMARK   88  A    between atoms: _212  and  _213
REMARK   89  A    between atoms: _213  and  _214
REMARK   90  A    between atoms: _214  and  _215
REMARK   91  A    between atoms: _224  and  _226
REMARK   92  A    between atoms: _226  and  _227
REMARK   93  A    between atoms: _226  and  _229
REMARK   94  A    between atoms: _229  and  _230
REMARK   95  A    between atoms: _232  and  _234
REMARK   96  A    between atoms: _234  and  _235
REMARK   97  A    between atoms: _234  and  _237
REMARK   98  A    between atoms: _240  and  _242
REMARK   99  A    between atoms: _242  and  _243
REMARK  100  A    between atoms: _242  and  _245
REMARK  101  A    between atoms: _245  and  _246
REMARK  102  A    between atoms: _246  and  _247
REMARK  103  A    between atoms: _250  and  _252
REMARK  104  A    between atoms: _252  and  _253
REMARK  105  A    between atoms: _256  and  _258
REMARK  106  A    between atoms: _258  and  _259
REMARK  107  A    between atoms: _258  and  _261
REMARK  108  A    between atoms: _264  and  _266
REMARK  109  A    between atoms: _266  and  _267
REMARK  110  A    between atoms: _266  and  _269
REMARK  111  A    between atoms: _269  and  _270
REMARK  112  A    between atoms: _270  and  _271
REMARK  113  A    between atoms: _274  and  _276
REMARK  114  A    between atoms: _276  and  _277
REMARK  115  A    between atoms: _276  and  _279
REMARK  116  A    between atoms: _279  and  _280
REMARK  117  A    between atoms: _283  and  _285
REMARK  118  A    between atoms: _285  and  _286
REMARK  119  A    between atoms: _285  and  _288
REMARK  120  A    between atoms: _291  and  _293
REMARK  121  A    between atoms: _293  and  _294
REMARK  122  A    between atoms: _293  and  _296
REMARK  123  A    between atoms: _296  and  _297
REMARK  124  A    between atoms: _302  and  _304
REMARK  125  A    between atoms: _304  and  _305
REMARK  126  A    between atoms: _304  and  _307
REMARK  127  A    between atoms: _307  and  _308
REMARK  128  A    between atoms: _308  and  _309
REMARK  129  A    between atoms: _312  and  _314
REMARK  130  A    between atoms: _314  and  _315
REMARK  131  A    between atoms: _314  and  _317
REMARK  132  A    between atoms: _317  and  _318
REMARK  133  A    between atoms: _321  and  _323
REMARK  134  A    between atoms: _323  and  _324
REMARK  135  A    between atoms: _323  and  _326
REMARK  136  A    between atoms: _326  and  _327
REMARK  137  A    between atoms: _330  and  _332
REMARK  138  A    between atoms: _332  and  _333
REMARK  139  A    between atoms: _332  and  _335
REMARK  140  A    between atoms: _335  and  _336
REMARK  141  A    between atoms: _341  and  _342
REMARK  142  A    between atoms: _344  and  _346
REMARK  143  A    between atoms: _346  and  _347
REMARK  144  A    between atoms: _346  and  _349
REMARK  145  A    between atoms: _349  and  _350
REMARK  146  A    between atoms: _353  and  _355
REMARK  147  A    between atoms: _355  and  _356
REMARK  148  A    between atoms: _355  and  _358
REMARK  149  A    between atoms: _358  and  _359
REMARK  150  A    between atoms: _359  and  _360
REMARK  151  A    between atoms: _362  and  _364
REMARK  152  A    between atoms: _364  and  _365
REMARK  153  A    between atoms: _364  and  _367
REMARK  154  A    between atoms: _367  and  _368
REMARK  155  A    between atoms: _371  and  _373
REMARK  156  A    between atoms: _373  and  _374
REMARK  157  A    between atoms: _377  and  _379
REMARK  158  A    between atoms: _379  and  _380
REMARK  159  A    between atoms: _379  and  _382
REMARK  160  A    between atoms: _382  and  _383
REMARK  161  A    between atoms: _385  and  _387
REMARK  162  A    between atoms: _387  and  _388
REMARK  163  A    between atoms: _387  and  _390
REMARK  164  A    between atoms: _390  and  _391
REMARK  165  A    between atoms: _394  and  _396
REMARK  166  A    between atoms: _396  and  _397
REMARK  167  A    between atoms: _396  and  _399
REMARK  168  A    between atoms: _399  and  _400
REMARK  169  A    between atoms: _400  and  _401
REMARK  170  A    between atoms: _403  and  _405
REMARK  171  A    between atoms: _405  and  _406
REMARK  172  A    between atoms: _405  and  _408
REMARK  173  A    between atoms: _411  and  _413
REMARK  174  A    between atoms: _413  and  _414
REMARK  175  A    between atoms: _413  and  _416
REMARK  176  A    between atoms: _416  and  _417
REMARK  177  A    between atoms: _420  and  _422
REMARK  178  A    between atoms: _422  and  _423
REMARK  179  A    between atoms: _422  and  _425
REMARK  180  A    between atoms: _425  and  _426
REMARK  181  A    between atoms: _429  and  _431
REMARK  182  A    between atoms: _431  and  _432
REMARK  183  A    between atoms: _431  and  _434
REMARK  184  A    between atoms: _434  and  _435
REMARK  185  A    between atoms: _437  and  _439
REMARK  186  A    between atoms: _439  and  _440
REMARK  187  A    between atoms: _439  and  _442
REMARK  188  A    between atoms: _442  and  _443
REMARK  189  A    between atoms: _443  and  _444
REMARK  190  A    between atoms: _447  and  _449
REMARK  191  A    between atoms: _449  and  _450
REMARK  192  A    between atoms: _452  and  _454
REMARK  193  A    between atoms: _454  and  _455
REMARK  194  A    between atoms: _454  and  _457
REMARK  195  A    between atoms: _457  and  _458
REMARK  196  A    between atoms: _458  and  _459
REMARK  197  A    between atoms: _464  and  _466
REMARK  198  A    between atoms: _466  and  _467
REMARK  199  A    between atoms: _469  and  _471
REMARK  200  A    between atoms: _471  and  _472
REMARK  201  A    between atoms: _471  and  _474
REMARK  202  A    between atoms: _474  and  _475
REMARK  203  A    between atoms: _475  and  _476
REMARK  204  A    between atoms: _478  and  _480
REMARK  205  A    between atoms: _480  and  _481
REMARK  206  A    between atoms: _480  and  _483
REMARK  207  A    between atoms: _483  and  _484
REMARK  208  A    between atoms: _487  and  _489
REMARK  209  A    between atoms: _489  and  _490
REMARK  210  A    between atoms: _489  and  _492
REMARK  211  A    between atoms: _492  and  _493
REMARK  212  A    between atoms: _499  and  _501
REMARK  213  A    between atoms: _501  and  _502
REMARK  214  A    between atoms: _501  and  _504
REMARK  215  A    between atoms: _504  and  _505
REMARK  216  A    between atoms: _508  and  _510
REMARK  217  A    between atoms: _510  and  _511
REMARK  218  A    between atoms: _510  and  _513
REMARK  219  A    between atoms: _513  and  _514
REMARK  220  A    between atoms: _517  and  _519
REMARK  221  A    between atoms: _519  and  _520
REMARK  222  A    between atoms: _519  and  _522
REMARK  223  A    between atoms: _522  and  _523
REMARK  224  A    between atoms: _529  and  _531
REMARK  225  A    between atoms: _531  and  _532
REMARK  226  A    between atoms: _531  and  _534
REMARK  227  A    between atoms: _534  and  _535
REMARK  228  A    between atoms: _535  and  _536
REMARK  229  A    between atoms: _538  and  _540
REMARK  230  A    between atoms: _540  and  _541
REMARK  231  A    between atoms: _540  and  _543
REMARK  232  A    between atoms: _543  and  _544
REMARK  233  A    between atoms: _544  and  _545
REMARK  234  A    between atoms: _545  and  _546
REMARK  235  A    between atoms: _546  and  _547
REMARK  236  A    between atoms: _551  and  _553
REMARK  237  A    between atoms: _553  and  _554
REMARK  238  A    between atoms: _553  and  _556
REMARK  239  A    between atoms: _556  and  _557
REMARK  240  A    between atoms: _563  and  _565
REMARK  241  A    between atoms: _565  and  _566
REMARK  242  A    between atoms: _565  and  _568
REMARK  243  A    between atoms: _568  and  _569
REMARK  244  A    between atoms: _574  and  _576
REMARK  245  A    between atoms: _576  and  _577
REMARK  246  A    between atoms: _576  and  _579
REMARK  247  A    between atoms: _579  and  _580
REMARK  248  A    between atoms: _585  and  _586
REMARK                            x       y       z     vdW  Elec       q    Type
REMARK                         _______ _______ _______ _____ _____    ______ ____
ROOT
ATOM      1  O   HOH     1      -8.237  11.855 -11.690  0.00  0.00    +0.000 OA
ENDROOT
TORSDOF 0
REMARK  Name = ../refined-set-2016/4a4w/4a4w_pocket.pdb
REMARK  248 active torsions:
REMARK  status: ('A' for Active; 'I' for Inactive)
REMARK    1  A    between atoms: _1  and  _3
REMARK    2  A    between atoms: _3  and  _4
REMARK    3  A    between atoms: _3  and  _6
REMARK    4  A    between atoms: _6  and  _7
REMARK    5  A    between atoms: _14  and  _15
REMARK    6  A    between atoms: _20  and  _22
REMARK    7  A    between atoms: _22  and  _23
REMARK    8  A    between atoms: _22  and  _25
REMARK    9  A    between atoms: _25  and  _26
REMARK   10  A    between atoms: _29  and  _31
REMARK   11  A    between atoms: _31  and  _32
REMARK   12  A    between atoms: _31  and  _34
REMARK   13  A    between atoms: _34  and  _35
REMARK   14  A    between atoms: _38  and  _40
REMARK   15  A    between atoms: _40  and  _41
REMARK   16  A    between atoms: _40  and  _43
REMARK   17  A    between atoms: _43  and  _44
REMARK   18  A    between atoms: _46  and  _48
REMARK   19  A    between atoms: _48  and  _49
REMARK   20  A    between atoms: _48  and  _51
REMARK   21  A    between atoms: _51  and  _52
REMARK   22  A    between atoms: _55  and  _57
REMARK   23  A    between atoms: _57  and  _58
REMARK   24  A    between atoms: _57  and  _60
REMARK   25  A    between atoms: _60  and  _61
REMARK   26  A    between atoms: _61  and  _62
REMARK   27  A    between atoms: _64  and  _66
REMARK   28  A    between atoms: _66  and  _67
REMARK   29  A    between atoms: _69  and  _71
REMARK   30  A    between atoms: _71  and  _72
REMARK   31  A    between atoms: _71  and  _74
REMARK   32  A    between atoms: _74  and  _75
REMARK   33  A    between atoms: _75  and  _76
REMARK   34  A    between atoms: _79  and  _81
REMARK   35  A    between atoms: _81  and  _82
REMARK   36  A    between atoms: _81  and  _84
REMARK   37  A    between atoms: _84  and  _85
REMARK   38  A    between atoms: _88  and  _90
REMARK   39  A    between atoms: _90  and  _91
REMARK   40  A    between atoms: _90  and  _93
REMARK   41  A    between atoms: _93  and  _94
REMARK   42  A    between atoms: _94  and  _95
REMARK   43  A    between atoms: _98  and  _100
REMARK   44  A    between atoms: _100  and  _101
REMARK   45  A    between atoms: _100  and  _103
REMARK   46  A    between atoms: _106  and  _108
REMARK   47  A    between atoms: _108  and  _109
REMARK   48  A    between atoms: _112  and  _114
REMARK   49  A    between atoms: _114  and  _115
REMARK   50  A    between atoms: _114  and  _117
REMARK   51  A    between atoms: _117  and  _118
REMARK   52  A    between atoms: _121  and  _123
REMARK   53  A    between atoms: _123  and  _124
REMARK   54  A    between atoms: _123  and  _126
REMARK   55  A    between atoms: _126  and  _127
REMARK   56  A    between atoms: _127  and  _128
REMARK   57  A    between atoms: _128  and  _129
REMARK   58  A    between atoms: _138  and  _140
REMARK   59  A    between atoms: _140  and  _141
REMARK   60  A    between atoms: _140  and  _143
REMARK   61  A    between atoms: _143  and  _144
REMARK   62  A    between atoms: _147  and  _149
REMARK   63  A    between atoms: _149  and  _150
REMARK   64  A    between atoms: _149  and  _152
REMARK   65  A    between atoms: _152  and  _153
REMARK   66  A    between atoms: _159  and  _161
REMARK   67  A    between atoms: _161  and  _162
REMARK   68  A    between atoms: _161  and  _164
REMARK   69  A    between atoms: _164  and  _165
REMARK   70  A    between atoms: _165  and  _166
REMARK   71  A    between atoms: _171  and  _173
REMARK   72  A    between atoms: _173  and  _174
REMARK   73  A    between atoms: _176  and  _178
REMARK   74  A    between atoms: _178  and  _179
REMARK   75  A    between atoms: _178  and  _181
REMARK   76  A    between atoms: _183  and  _185
REMARK   77  A    between atoms: _185  and  _186
REMARK   78  A    between atoms: _185  and  _188
REMARK   79  A    between atoms: _188  and  _189
REMARK   80  A    between atoms: _189  and  _190
REMARK   81  A    between atoms: _195  and  _197
REMARK   82  A    between atoms: _197  and  _198
REMARK   83  A    between atoms: _197  and  _200
REMARK   84  A    between atoms: _200  and  _201
REMARK   85  A    between atoms: _207  and  _209
REMARK   86  A    between atoms: _209  and  _210
REMARK   87  A    between atoms: _209  and  _212
REMARK   88  A    between atoms: _212  and  _213
REMARK   89  A    between atoms: _213  and  _214
REMARK   90  A    between atoms: _214  and  _215
REMARK   91  A    between atoms: _224  and  _226
REMARK   92  A    between atoms: _226  and  _227
REMARK   93  A    between atoms: _226  and  _229
REMARK   94  A    between atoms: _229  and  _230
REMARK   95  A    between atoms: _232  and  _234
REMARK   96  A    between atoms: _234  and  _235
REMARK   97  A    between atoms: _234  and  _237
REMARK   98  A    between atoms: _240  and  _242
REMARK   99  A    between atoms: _242  and  _243
REMARK  100  A    between atoms: _242  and  _245
REMARK  101  A    between atoms: _245  and  _246
REMARK  102  A    between atoms: _246  and  _247
REMARK  103  A    between atoms: _250  and  _252
REMARK  104  A    between atoms: _252  and  _253
REMARK  105  A    between atoms: _256  and  _258
REMARK  106  A    between atoms: _258  and  _259
REMARK  107  A    between atoms: _258  and  _261
REMARK  108  A    between atoms: _264  and  _266
REMARK  109  A    between atoms: _266  and  _267
REMARK  110  A    between atoms: _266  and  _269
REMARK  111  A    between atoms: _269  and  _270
REMARK  112  A    between atoms: _270  and  _271
REMARK  113  A    between atoms: _274  and  _276
REMARK  114  A    between atoms: _276  and  _277
REMARK  115  A    between atoms: _276  and  _279
REMARK  116  A    between atoms: _279  and  _280
REMARK  117  A    between atoms: _283  and  _285
REMARK  118  A    between atoms: _285  and  _286
REMARK  119  A    between atoms: _285  and  _288
REMARK  120  A    between atoms: _291  and  _293
REMARK  121  A    between atoms: _293  and  _294
REMARK  122  A    between atoms: _293  and  _296
REMARK  123  A    between atoms: _296  and  _297
REMARK  124  A    between atoms: _302  and  _304
REMARK  125  A    between atoms: _304  and  _305
REMARK  126  A    between atoms: _304  and  _307
REMARK  127  A    between atoms: _307  and  _308
REMARK  128  A    between atoms: _308  and  _309
REMARK  129  A    between atoms: _312  and  _314
REMARK  130  A    between atoms: _314  and  _315
REMARK  131  A    between atoms: _314  and  _317
REMARK  132  A    between atoms: _317  and  _318
REMARK  133  A    between atoms: _321  and  _323
REMARK  134  A    between atoms: _323  and  _324
REMARK  135  A    between atoms: _323  and  _326
REMARK  136  A    between atoms: _326  and  _327
REMARK  137  A    between atoms: _330  and  _332
REMARK  138  A    between atoms: _332  and  _333
REMARK  139  A    between atoms: _332  and  _335
REMARK  140  A    between atoms: _335  and  _336
REMARK  141  A    between atoms: _341  and  _342
REMARK  142  A    between atoms: _344  and  _346
REMARK  143  A    between atoms: _346  and  _347
REMARK  144  A    between atoms: _346  and  _349
REMARK  145  A    between atoms: _349  and  _350
REMARK  146  A    between atoms: _353  and  _355
REMARK  147  A    between atoms: _355  and  _356
REMARK  148  A    between atoms: _355  and  _358
REMARK  149  A    between atoms: _358  and  _359
REMARK  150  A    between atoms: _359  and  _360
REMARK  151  A    between atoms: _362  and  _364
REMARK  152  A    between atoms: _364  and  _365
REMARK  153  A    between atoms: _364  and  _367
REMARK  154  A    between atoms: _367  and  _368
REMARK  155  A    between atoms: _371  and  _373
REMARK  156  A    between atoms: _373  and  _374
REMARK  157  A    between atoms: _377  and  _379
REMARK  158  A    between atoms: _379  and  _380
REMARK  159  A    between atoms: _379  and  _382
REMARK  160  A    between atoms: _382  and  _383
REMARK  161  A    between atoms: _385  and  _387
REMARK  162  A    between atoms: _387  and  _388
REMARK  163  A    between atoms: _387  and  _390
REMARK  164  A    between atoms: _390  and  _391
REMARK  165  A    between atoms: _394  and  _396
REMARK  166  A    between atoms: _396  and  _397
REMARK  167  A    between atoms: _396  and  _399
REMARK  168  A    between atoms: _399  and  _400
REMARK  169  A    between atoms: _400  and  _401
REMARK  170  A    between atoms: _403  and  _405
REMARK  171  A    between atoms: _405  and  _406
REMARK  172  A    between atoms: _405  and  _408
REMARK  173  A    between atoms: _411  and  _413
REMARK  174  A    between atoms: _413  and  _414
REMARK  175  A    between atoms: _413  and  _416
REMARK  176  A    between atoms: _416  and  _417
REMARK  177  A    between atoms: _420  and  _422
REMARK  178  A    between atoms: _422  and  _423
REMARK  179  A    between atoms: _422  and  _425
REMARK  180  A    between atoms: _425  and  _426
REMARK  181  A    between atoms: _429  and  _431
REMARK  182  A    between atoms: _431  and  _432
REMARK  183  A    between atoms: _431  and  _434
REMARK  184  A    between atoms: _434  and  _435
REMARK  185  A    between atoms: _437  and  _439
REMARK  186  A    between atoms: _439  and  _440
REMARK  187  A    between atoms: _439  and  _442
REMARK  188  A    between atoms: _442  and  _443
REMARK  189  A    between atoms: _443  and  _444
REMARK  190  A    between atoms: _447  and  _449
REMARK  191  A    between atoms: _449  and  _450
REMARK  192  A    between atoms: _452  and  _454
REMARK  193  A    between atoms: _454  and  _455
REMARK  194  A    between atoms: _454  and  _457
REMARK  195  A    between atoms: _457  and  _458
REMARK  196  A    between atoms: _458  and  _459
REMARK  197  A    between atoms: _464  and  _466
REMARK  198  A    between atoms: _466  and  _467
REMARK  199  A    between atoms: _469  and  _471
REMARK  200  A    between atoms: _471  and  _472
REMARK  201  A    between atoms: _471  and  _474
REMARK  202  A    between atoms: _474  and  _475
REMARK  203  A    between atoms: _475  and  _476
REMARK  204  A    between atoms: _478  and  _480
REMARK  205  A    between atoms: _480  and  _481
REMARK  206  A    between atoms: _480  and  _483
REMARK  207  A    between atoms: _483  and  _484
REMARK  208  A    between atoms: _487  and  _489
REMARK  209  A    between atoms: _489  and  _490
REMARK  210  A    between atoms: _489  and  _492
REMARK  211  A    between atoms: _492  and  _493
REMARK  212  A    between atoms: _499  and  _501
REMARK  213  A    between atoms: _501  and  _502
REMARK  214  A    between atoms: _501  and  _504
REMARK  215  A    between atoms: _504  and  _505
REMARK  216  A    between atoms: _508  and  _510
REMARK  217  A    between atoms: _510  and  _511
REMARK  218  A    between atoms: _510  and  _513
REMARK  219  A    between atoms: _513  and  _514
REMARK  220  A    between atoms: _517  and  _519
REMARK  221  A    between atoms: _519  and  _520
REMARK  222  A    between atoms: _519  and  _522
REMARK  223  A    between atoms: _522  and  _523
REMARK  224  A    between atoms: _529  and  _531
REMARK  225  A    between atoms: _531  and  _532
REMARK  226  A    between atoms: _531  and  _534
REMARK  227  A    between atoms: _534  and  _535
REMARK  228  A    between atoms: _535  and  _536
REMARK  229  A    between atoms: _538  and  _540
REMARK  230  A    between atoms: _540  and  _541
REMARK  231  A    between atoms: _540  and  _543
REMARK  232  A    between atoms: _543  and  _544
REMARK  233  A    between atoms: _544  and  _545
REMARK  234  A    between atoms: _545  and  _546
REMARK  235  A    between atoms: _546  and  _547
REMARK  236  A    between atoms: _551  and  _553
REMARK  237  A    between atoms: _553  and  _554
REMARK  238  A    between atoms: _553  and  _556
REMARK  239  A    between atoms: _556  and  _557
REMARK  240  A    between atoms: _563  and  _565
REMARK  241  A    between atoms: _565  and  _566
REMARK  242  A    between atoms: _565  and  _568
REMARK  243  A    between atoms: _568  and  _569
REMARK  244  A    between atoms: _574  and  _576
REMARK  245  A    between atoms: _576  and  _577
REMARK  246  A    between atoms: _576  and  _579
REMARK  247  A    between atoms: _579  and  _580
REMARK  248  A    between atoms: _585  and  _586
REMARK                            x       y       z     vdW  Elec       q    Type
REMARK                         _______ _______ _______ _____ _____    ______ ____
ROOT
ATOM      1  O   HOH     1     -19.174  30.794  -4.958  0.00  0.00    +0.000 OA
ENDROOT
TORSDOF 0
REMARK  Name = ../refined-set-2016/4a4w/4a4w_pocket.pdb
REMARK  248 active torsions:
REMARK  status: ('A' for Active; 'I' for Inactive)
REMARK    1  A    between atoms: _1  and  _3
REMARK    2  A    between atoms: _3  and  _4
REMARK    3  A    between atoms: _3  and  _6
REMARK    4  A    between atoms: _6  and  _7
REMARK    5  A    between atoms: _14  and  _15
REMARK    6  A    between atoms: _20  and  _22
REMARK    7  A    between atoms: _22  and  _23
REMARK    8  A    between atoms: _22  and  _25
REMARK    9  A    between atoms: _25  and  _26
REMARK   10  A    between atoms: _29  and  _31
REMARK   11  A    between atoms: _31  and  _32
REMARK   12  A    between atoms: _31  and  _34
REMARK   13  A    between atoms: _34  and  _35
REMARK   14  A    between atoms: _38  and  _40
REMARK   15  A    between atoms: _40  and  _41
REMARK   16  A    between atoms: _40  and  _43
REMARK   17  A    between atoms: _43  and  _44
REMARK   18  A    between atoms: _46  and  _48
REMARK   19  A    between atoms: _48  and  _49
REMARK   20  A    between atoms: _48  and  _51
REMARK   21  A    between atoms: _51  and  _52
REMARK   22  A    between atoms: _55  and  _57
REMARK   23  A    between atoms: _57  and  _58
REMARK   24  A    between atoms: _57  and  _60
REMARK   25  A    between atoms: _60  and  _61
REMARK   26  A    between atoms: _61  and  _62
REMARK   27  A    between atoms: _64  and  _66
REMARK   28  A    between atoms: _66  and  _67
REMARK   29  A    between atoms: _69  and  _71
REMARK   30  A    between atoms: _71  and  _72
REMARK   31  A    between atoms: _71  and  _74
REMARK   32  A    between atoms: _74  and  _75
REMARK   33  A    between atoms: _75  and  _76
REMARK   34  A    between atoms: _79  and  _81
REMARK   35  A    between atoms: _81  and  _82
REMARK   36  A    between atoms: _81  and  _84
REMARK   37  A    between atoms: _84  and  _85
REMARK   38  A    between atoms: _88  and  _90
REMARK   39  A    between atoms: _90  and  _91
REMARK   40  A    between atoms: _90  and  _93
REMARK   41  A    between atoms: _93  and  _94
REMARK   42  A    between atoms: _94  and  _95
REMARK   43  A    between atoms: _98  and  _100
REMARK   44  A    between atoms: _100  and  _101
REMARK   45  A    between atoms: _100  and  _103
REMARK   46  A    between atoms: _106  and  _108
REMARK   47  A    between atoms: _108  and  _109
REMARK   48  A    between atoms: _112  and  _114
REMARK   49  A    between atoms: _114  and  _115
REMARK   50  A    between atoms: _114  and  _117
REMARK   51  A    between atoms: _117  and  _118
REMARK   52  A    between atoms: _121  and  _123
REMARK   53  A    between atoms: _123  and  _124
REMARK   54  A    between atoms: _123  and  _126
REMARK   55  A    between atoms: _126  and  _127
REMARK   56  A    between atoms: _127  and  _128
REMARK   57  A    between atoms: _128  and  _129
REMARK   58  A    between atoms: _138  and  _140
REMARK   59  A    between atoms: _140  and  _141
REMARK   60  A    between atoms: _140  and  _143
REMARK   61  A    between atoms: _143  and  _144
REMARK   62  A    between atoms: _147  and  _149
REMARK   63  A    between atoms: _149  and  _150
REMARK   64  A    between atoms: _149  and  _152
REMARK   65  A    between atoms: _152  and  _153
REMARK   66  A    between atoms: _159  and  _161
REMARK   67  A    between atoms: _161  and  _162
REMARK   68  A    between atoms: _161  and  _164
REMARK   69  A    between atoms: _164  and  _165
REMARK   70  A    between atoms: _165  and  _166
REMARK   71  A    between atoms: _171  and  _173
REMARK   72  A    between atoms: _173  and  _174
REMARK   73  A    between atoms: _176  and  _178
REMARK   74  A    between atoms: _178  and  _179
REMARK   75  A    between atoms: _178  and  _181
REMARK   76  A    between atoms: _183  and  _185
REMARK   77  A    between atoms: _185  and  _186
REMARK   78  A    between atoms: _185  and  _188
REMARK   79  A    between atoms: _188  and  _189
REMARK   80  A    between atoms: _189  and  _190
REMARK   81  A    between atoms: _195  and  _197
REMARK   82  A    between atoms: _197  and  _198
REMARK   83  A    between atoms: _197  and  _200
REMARK   84  A    between atoms: _200  and  _201
REMARK   85  A    between atoms: _207  and  _209
REMARK   86  A    between atoms: _209  and  _210
REMARK   87  A    between atoms: _209  and  _212
REMARK   88  A    between atoms: _212  and  _213
REMARK   89  A    between atoms: _213  and  _214
REMARK   90  A    between atoms: _214  and  _215
REMARK   91  A    between atoms: _224  and  _226
REMARK   92  A    between atoms: _226  and  _227
REMARK   93  A    between atoms: _226  and  _229
REMARK   94  A    between atoms: _229  and  _230
REMARK   95  A    between atoms: _232  and  _234
REMARK   96  A    between atoms: _234  and  _235
REMARK   97  A    between atoms: _234  and  _237
REMARK   98  A    between atoms: _240  and  _242
REMARK   99  A    between atoms: _242  and  _243
REMARK  100  A    between atoms: _242  and  _245
REMARK  101  A    between atoms: _245  and  _246
REMARK  102  A    between atoms: _246  and  _247
REMARK  103  A    between atoms: _250  and  _252
REMARK  104  A    between atoms: _252  and  _253
REMARK  105  A    between atoms: _256  and  _258
REMARK  106  A    between atoms: _258  and  _259
REMARK  107  A    between atoms: _258  and  _261
REMARK  108  A    between atoms: _264  and  _266
REMARK  109  A    between atoms: _266  and  _267
REMARK  110  A    between atoms: _266  and  _269
REMARK  111  A    between atoms: _269  and  _270
REMARK  112  A    between atoms: _270  and  _271
REMARK  113  A    between atoms: _274  and  _276
REMARK  114  A    between atoms: _276  and  _277
REMARK  115  A    between atoms: _276  and  _279
REMARK  116  A    between atoms: _279  and  _280
REMARK  117  A    between atoms: _283  and  _285
REMARK  118  A    between atoms: _285  and  _286
REMARK  119  A    between atoms: _285  and  _288
REMARK  120  A    between atoms: _291  and  _293
REMARK  121  A    between atoms: _293  and  _294
REMARK  122  A    between atoms: _293  and  _296
REMARK  123  A    between atoms: _296  and  _297
REMARK  124  A    between atoms: _302  and  _304
REMARK  125  A    between atoms: _304  and  _305
REMARK  126  A    between atoms: _304  and  _307
REMARK  127  A    between atoms: _307  and  _308
REMARK  128  A    between atoms: _308  and  _309
REMARK  129  A    between atoms: _312  and  _314
REMARK  130  A    between atoms: _314  and  _315
REMARK  131  A    between atoms: _314  and  _317
REMARK  132  A    between atoms: _317  and  _318
REMARK  133  A    between atoms: _321  and  _323
REMARK  134  A    between atoms: _323  and  _324
REMARK  135  A    between atoms: _323  and  _326
REMARK  136  A    between atoms: _326  and  _327
REMARK  137  A    between atoms: _330  and  _332
REMARK  138  A    between atoms: _332  and  _333
REMARK  139  A    between atoms: _332  and  _335
REMARK  140  A    between atoms: _335  and  _336
REMARK  141  A    between atoms: _341  and  _342
REMARK  142  A    between atoms: _344  and  _346
REMARK  143  A    between atoms: _346  and  _347
REMARK  144  A    between atoms: _346  and  _349
REMARK  145  A    between atoms: _349  and  _350
REMARK  146  A    between atoms: _353  and  _355
REMARK  147  A    between atoms: _355  and  _356
REMARK  148  A    between atoms: _355  and  _358
REMARK  149  A    between atoms: _358  and  _359
REMARK  150  A    between atoms: _359  and  _360
REMARK  151  A    between atoms: _362  and  _364
REMARK  152  A    between atoms: _364  and  _365
REMARK  153  A    between atoms: _364  and  _367
REMARK  154  A    between atoms: _367  and  _368
REMARK  155  A    between atoms: _371  and  _373
REMARK  156  A    between atoms: _373  and  _374
REMARK  157  A    between atoms: _377  and  _379
REMARK  158  A    between atoms: _379  and  _380
REMARK  159  A    between atoms: _379  and  _382
REMARK  160  A    between atoms: _382  and  _383
REMARK  161  A    between atoms: _385  and  _387
REMARK  162  A    between atoms: _387  and  _388
REMARK  163  A    between atoms: _387  and  _390
REMARK  164  A    between atoms: _390  and  _391
REMARK  165  A    between atoms: _394  and  _396
REMARK  166  A    between atoms: _396  and  _397
REMARK  167  A    between atoms: _396  and  _399
REMARK  168  A    between atoms: _399  and  _400
REMARK  169  A    between atoms: _400  and  _401
REMARK  170  A    between atoms: _403  and  _405
REMARK  171  A    between atoms: _405  and  _406
REMARK  172  A    between atoms: _405  and  _408
REMARK  173  A    between atoms: _411  and  _413
REMARK  174  A    between atoms: _413  and  _414
REMARK  175  A    between atoms: _413  and  _416
REMARK  176  A    between atoms: _416  and  _417
REMARK  177  A    between atoms: _420  and  _422
REMARK  178  A    between atoms: _422  and  _423
REMARK  179  A    between atoms: _422  and  _425
REMARK  180  A    between atoms: _425  and  _426
REMARK  181  A    between atoms: _429  and  _431
REMARK  182  A    between atoms: _431  and  _432
REMARK  183  A    between atoms: _431  and  _434
REMARK  184  A    between atoms: _434  and  _435
REMARK  185  A    between atoms: _437  and  _439
REMARK  186  A    between atoms: _439  and  _440
REMARK  187  A    between atoms: _439  and  _442
REMARK  188  A    between atoms: _442  and  _443
REMARK  189  A    between atoms: _443  and  _444
REMARK  190  A    between atoms: _447  and  _449
REMARK  191  A    between atoms: _449  and  _450
REMARK  192  A    between atoms: _452  and  _454
REMARK  193  A    between atoms: _454  and  _455
REMARK  194  A    between atoms: _454  and  _457
REMARK  195  A    between atoms: _457  and  _458
REMARK  196  A    between atoms: _458  and  _459
REMARK  197  A    between atoms: _464  and  _466
REMARK  198  A    between atoms: _466  and  _467
REMARK  199  A    between atoms: _469  and  _471
REMARK  200  A    between atoms: _471  and  _472
REMARK  201  A    between atoms: _471  and  _474
REMARK  202  A    between atoms: _474  and  _475
REMARK  203  A    between atoms: _475  and  _476
REMARK  204  A    between atoms: _478  and  _480
REMARK  205  A    between atoms: _480  and  _481
REMARK  206  A    between atoms: _480  and  _483
REMARK  207  A    between atoms: _483  and  _484
REMARK  208  A    between atoms: _487  and  _489
REMARK  209  A    between atoms: _489  and  _490
REMARK  210  A    between atoms: _489  and  _492
REMARK  211  A    between atoms: _492  and  _493
REMARK  212  A    between atoms: _499  and  _501
REMARK  213  A    between atoms: _501  and  _502
REMARK  214  A    between atoms: _501  and  _504
REMARK  215  A    between atoms: _504  and  _505
REMARK  216  A    between atoms: _508  and  _510
REMARK  217  A    between atoms: _510  and  _511
REMARK  218  A    between atoms: _510  and  _513
REMARK  219  A    between atoms: _513  and  _514
REMARK  220  A    between atoms: _517  and  _519
REMARK  221  A    between atoms: _519  and  _520
REMARK  222  A    between atoms: _519  and  _522
REMARK  223  A    between atoms: _522  and  _523
REMARK  224  A    between atoms: _529  and  _531
REMARK  225  A    between atoms: _531  and  _532
REMARK  226  A    between atoms: _531  and  _534
REMARK  227  A    between atoms: _534  and  _535
REMARK  228  A    between atoms: _535  and  _536
REMARK  229  A    between atoms: _538  and  _540
REMARK  230  A    between atoms: _540  and  _541
REMARK  231  A    between atoms: _540  and  _543
REMARK  232  A    between atoms: _543  and  _544
REMARK  233  A    between atoms: _544  and  _545
REMARK  234  A    between atoms: _545  and  _546
REMARK  235  A    between atoms: _546  and  _547
REMARK  236  A    between atoms: _551  and  _553
REMARK  237  A    between atoms: _553  and  _554
REMARK  238  A    between atoms: _553  and  _556
REMARK  239  A    between atoms: _556  and  _557
REMARK  240  A    between atoms: _563  and  _565
REMARK  241  A    between atoms: _565  and  _566
REMARK  242  A    between atoms: _565  and  _568
REMARK  243  A    between atoms: _568  and  _569
REMARK  244  A    between atoms: _574  and  _576
REMARK  245  A    between atoms: _576  and  _577
REMARK  246  A    between atoms: _576  and  _579
REMARK  247  A    between atoms: _579  and  _580
REMARK  248  A    between atoms: _585  and  _586
REMARK                            x       y       z     vdW  Elec       q    Type
REMARK                         _______ _______ _______ _____ _____    ______ ____
ROOT
ATOM      1  O   HOH     1     -11.909  17.991 -11.045  0.00  0.00    +0.000 OA
ENDROOT
TORSDOF 0
REMARK  Name = ../refined-set-2016/4a4w/4a4w_pocket.pdb
REMARK  248 active torsions:
REMARK  status: ('A' for Active; 'I' for Inactive)
REMARK    1  A    between atoms: _1  and  _3
REMARK    2  A    between atoms: _3  and  _4
REMARK    3  A    between atoms: _3  and  _6
REMARK    4  A    between atoms: _6  and  _7
REMARK    5  A    between atoms: _14  and  _15
REMARK    6  A    between atoms: _20  and  _22
REMARK    7  A    between atoms: _22  and  _23
REMARK    8  A    between atoms: _22  and  _25
REMARK    9  A    between atoms: _25  and  _26
REMARK   10  A    between atoms: _29  and  _31
REMARK   11  A    between atoms: _31  and  _32
REMARK   12  A    between atoms: _31  and  _34
REMARK   13  A    between atoms: _34  and  _35
REMARK   14  A    between atoms: _38  and  _40
REMARK   15  A    between atoms: _40  and  _41
REMARK   16  A    between atoms: _40  and  _43
REMARK   17  A    between atoms: _43  and  _44
REMARK   18  A    between atoms: _46  and  _48
REMARK   19  A    between atoms: _48  and  _49
REMARK   20  A    between atoms: _48  and  _51
REMARK   21  A    between atoms: _51  and  _52
REMARK   22  A    between atoms: _55  and  _57
REMARK   23  A    between atoms: _57  and  _58
REMARK   24  A    between atoms: _57  and  _60
REMARK   25  A    between atoms: _60  and  _61
REMARK   26  A    between atoms: _61  and  _62
REMARK   27  A    between atoms: _64  and  _66
REMARK   28  A    between atoms: _66  and  _67
REMARK   29  A    between atoms: _69  and  _71
REMARK   30  A    between atoms: _71  and  _72
REMARK   31  A    between atoms: _71  and  _74
REMARK   32  A    between atoms: _74  and  _75
REMARK   33  A    between atoms: _75  and  _76
REMARK   34  A    between atoms: _79  and  _81
REMARK   35  A    between atoms: _81  and  _82
REMARK   36  A    between atoms: _81  and  _84
REMARK   37  A    between atoms: _84  and  _85
REMARK   38  A    between atoms: _88  and  _90
REMARK   39  A    between atoms: _90  and  _91
REMARK   40  A    between atoms: _90  and  _93
REMARK   41  A    between atoms: _93  and  _94
REMARK   42  A    between atoms: _94  and  _95
REMARK   43  A    between atoms: _98  and  _100
REMARK   44  A    between atoms: _100  and  _101
REMARK   45  A    between atoms: _100  and  _103
REMARK   46  A    between atoms: _106  and  _108
REMARK   47  A    between atoms: _108  and  _109
REMARK   48  A    between atoms: _112  and  _114
REMARK   49  A    between atoms: _114  and  _115
REMARK   50  A    between atoms: _114  and  _117
REMARK   51  A    between atoms: _117  and  _118
REMARK   52  A    between atoms: _121  and  _123
REMARK   53  A    between atoms: _123  and  _124
REMARK   54  A    between atoms: _123  and  _126
REMARK   55  A    between atoms: _126  and  _127
REMARK   56  A    between atoms: _127  and  _128
REMARK   57  A    between atoms: _128  and  _129
REMARK   58  A    between atoms: _138  and  _140
REMARK   59  A    between atoms: _140  and  _141
REMARK   60  A    between atoms: _140  and  _143
REMARK   61  A    between atoms: _143  and  _144
REMARK   62  A    between atoms: _147  and  _149
REMARK   63  A    between atoms: _149  and  _150
REMARK   64  A    between atoms: _149  and  _152
REMARK   65  A    between atoms: _152  and  _153
REMARK   66  A    between atoms: _159  and  _161
REMARK   67  A    between atoms: _161  and  _162
REMARK   68  A    between atoms: _161  and  _164
REMARK   69  A    between atoms: _164  and  _165
REMARK   70  A    between atoms: _165  and  _166
REMARK   71  A    between atoms: _171  and  _173
REMARK   72  A    between atoms: _173  and  _174
REMARK   73  A    between atoms: _176  and  _178
REMARK   74  A    between atoms: _178  and  _179
REMARK   75  A    between atoms: _178  and  _181
REMARK   76  A    between atoms: _183  and  _185
REMARK   77  A    between atoms: _185  and  _186
REMARK   78  A    between atoms: _185  and  _188
REMARK   79  A    between atoms: _188  and  _189
REMARK   80  A    between atoms: _189  and  _190
REMARK   81  A    between atoms: _195  and  _197
REMARK   82  A    between atoms: _197  and  _198
REMARK   83  A    between atoms: _197  and  _200
REMARK   84  A    between atoms: _200  and  _201
REMARK   85  A    between atoms: _207  and  _209
REMARK   86  A    between atoms: _209  and  _210
REMARK   87  A    between atoms: _209  and  _212
REMARK   88  A    between atoms: _212  and  _213
REMARK   89  A    between atoms: _213  and  _214
REMARK   90  A    between atoms: _214  and  _215
REMARK   91  A    between atoms: _224  and  _226
REMARK   92  A    between atoms: _226  and  _227
REMARK   93  A    between atoms: _226  and  _229
REMARK   94  A    between atoms: _229  and  _230
REMARK   95  A    between atoms: _232  and  _234
REMARK   96  A    between atoms: _234  and  _235
REMARK   97  A    between atoms: _234  and  _237
REMARK   98  A    between atoms: _240  and  _242
REMARK   99  A    between atoms: _242  and  _243
REMARK  100  A    between atoms: _242  and  _245
REMARK  101  A    between atoms: _245  and  _246
REMARK  102  A    between atoms: _246  and  _247
REMARK  103  A    between atoms: _250  and  _252
REMARK  104  A    between atoms: _252  and  _253
REMARK  105  A    between atoms: _256  and  _258
REMARK  106  A    between atoms: _258  and  _259
REMARK  107  A    between atoms: _258  and  _261
REMARK  108  A    between atoms: _264  and  _266
REMARK  109  A    between atoms: _266  and  _267
REMARK  110  A    between atoms: _266  and  _269
REMARK  111  A    between atoms: _269  and  _270
REMARK  112  A    between atoms: _270  and  _271
REMARK  113  A    between atoms: _274  and  _276
REMARK  114  A    between atoms: _276  and  _277
REMARK  115  A    between atoms: _276  and  _279
REMARK  116  A    between atoms: _279  and  _280
REMARK  117  A    between atoms: _283  and  _285
REMARK  118  A    between atoms: _285  and  _286
REMARK  119  A    between atoms: _285  and  _288
REMARK  120  A    between atoms: _291  and  _293
REMARK  121  A    between atoms: _293  and  _294
REMARK  122  A    between atoms: _293  and  _296
REMARK  123  A    between atoms: _296  and  _297
REMARK  124  A    between atoms: _302  and  _304
REMARK  125  A    between atoms: _304  and  _305
REMARK  126  A    between atoms: _304  and  _307
REMARK  127  A    between atoms: _307  and  _308
REMARK  128  A    between atoms: _308  and  _309
REMARK  129  A    between atoms: _312  and  _314
REMARK  130  A    between atoms: _314  and  _315
REMARK  131  A    between atoms: _314  and  _317
REMARK  132  A    between atoms: _317  and  _318
REMARK  133  A    between atoms: _321  and  _323
REMARK  134  A    between atoms: _323  and  _324
REMARK  135  A    between atoms: _323  and  _326
REMARK  136  A    between atoms: _326  and  _327
REMARK  137  A    between atoms: _330  and  _332
REMARK  138  A    between atoms: _332  and  _333
REMARK  139  A    between atoms: _332  and  _335
REMARK  140  A    between atoms: _335  and  _336
REMARK  141  A    between atoms: _341  and  _342
REMARK  142  A    between atoms: _344  and  _346
REMARK  143  A    between atoms: _346  and  _347
REMARK  144  A    between atoms: _346  and  _349
REMARK  145  A    between atoms: _349  and  _350
REMARK  146  A    between atoms: _353  and  _355
REMARK  147  A    between atoms: _355  and  _356
REMARK  148  A    between atoms: _355  and  _358
REMARK  149  A    between atoms: _358  and  _359
REMARK  150  A    between atoms: _359  and  _360
REMARK  151  A    between atoms: _362  and  _364
REMARK  152  A    between atoms: _364  and  _365
REMARK  153  A    between atoms: _364  and  _367
REMARK  154  A    between atoms: _367  and  _368
REMARK  155  A    between atoms: _371  and  _373
REMARK  156  A    between atoms: _373  and  _374
REMARK  157  A    between atoms: _377  and  _379
REMARK  158  A    between atoms: _379  and  _380
REMARK  159  A    between atoms: _379  and  _382
REMARK  160  A    between atoms: _382  and  _383
REMARK  161  A    between atoms: _385  and  _387
REMARK  162  A    between atoms: _387  and  _388
REMARK  163  A    between atoms: _387  and  _390
REMARK  164  A    between atoms: _390  and  _391
REMARK  165  A    between atoms: _394  and  _396
REMARK  166  A    between atoms: _396  and  _397
REMARK  167  A    between atoms: _396  and  _399
REMARK  168  A    between atoms: _399  and  _400
REMARK  169  A    between atoms: _400  and  _401
REMARK  170  A    between atoms: _403  and  _405
REMARK  171  A    between atoms: _405  and  _406
REMARK  172  A    between atoms: _405  and  _408
REMARK  173  A    between atoms: _411  and  _413
REMARK  174  A    between atoms: _413  and  _414
REMARK  175  A    between atoms: _413  and  _416
REMARK  176  A    between atoms: _416  and  _417
REMARK  177  A    between atoms: _420  and  _422
REMARK  178  A    between atoms: _422  and  _423
REMARK  179  A    between atoms: _422  and  _425
REMARK  180  A    between atoms: _425  and  _426
REMARK  181  A    between atoms: _429  and  _431
REMARK  182  A    between atoms: _431  and  _432
REMARK  183  A    between atoms: _431  and  _434
REMARK  184  A    between atoms: _434  and  _435
REMARK  185  A    between atoms: _437  and  _439
REMARK  186  A    between atoms: _439  and  _440
REMARK  187  A    between atoms: _439  and  _442
REMARK  188  A    between atoms: _442  and  _443
REMARK  189  A    between atoms: _443  and  _444
REMARK  190  A    between atoms: _447  and  _449
REMARK  191  A    between atoms: _449  and  _450
REMARK  192  A    between atoms: _452  and  _454
REMARK  193  A    between atoms: _454  and  _455
REMARK  194  A    between atoms: _454  and  _457
REMARK  195  A    between atoms: _457  and  _458
REMARK  196  A    between atoms: _458  and  _459
REMARK  197  A    between atoms: _464  and  _466
REMARK  198  A    between atoms: _466  and  _467
REMARK  199  A    between atoms: _469  and  _471
REMARK  200  A    between atoms: _471  and  _472
REMARK  201  A    between atoms: _471  and  _474
REMARK  202  A    between atoms: _474  and  _475
REMARK  203  A    between atoms: _475  and  _476
REMARK  204  A    between atoms: _478  and  _480
REMARK  205  A    between atoms: _480  and  _481
REMARK  206  A    between atoms: _480  and  _483
REMARK  207  A    between atoms: _483  and  _484
REMARK  208  A    between atoms: _487  and  _489
REMARK  209  A    between atoms: _489  and  _490
REMARK  210  A    between atoms: _489  and  _492
REMARK  211  A    between atoms: _492  and  _493
REMARK  212  A    between atoms: _499  and  _501
REMARK  213  A    between atoms: _501  and  _502
REMARK  214  A    between atoms: _501  and  _504
REMARK  215  A    between atoms: _504  and  _505
REMARK  216  A    between atoms: _508  and  _510
REMARK  217  A    between atoms: _510  and  _511
REMARK  218  A    between atoms: _510  and  _513
REMARK  219  A    between atoms: _513  and  _514
REMARK  220  A    between atoms: _517  and  _519
REMARK  221  A    between atoms: _519  and  _520
REMARK  222  A    between atoms: _519  and  _522
REMARK  223  A    between atoms: _522  and  _523
REMARK  224  A    between atoms: _529  and  _531
REMARK  225  A    between atoms: _531  and  _532
REMARK  226  A    between atoms: _531  and  _534
REMARK  227  A    between atoms: _534  and  _535
REMARK  228  A    between atoms: _535  and  _536
REMARK  229  A    between atoms: _538  and  _540
REMARK  230  A    between atoms: _540  and  _541
REMARK  231  A    between atoms: _540  and  _543
REMARK  232  A    between atoms: _543  and  _544
REMARK  233  A    between atoms: _544  and  _545
REMARK  234  A    between atoms: _545  and  _546
REMARK  235  A    between atoms: _546  and  _547
REMARK  236  A    between atoms: _551  and  _553
REMARK  237  A    between atoms: _553  and  _554
REMARK  238  A    between atoms: _553  and  _556
REMARK  239  A    between atoms: _556  and  _557
REMARK  240  A    between atoms: _563  and  _565
REMARK  241  A    between atoms: _565  and  _566
REMARK  242  A    between atoms: _565  and  _568
REMARK  243  A    between atoms: _568  and  _569
REMARK  244  A    between atoms: _574  and  _576
REMARK  245  A    between atoms: _576  and  _577
REMARK  246  A    between atoms: _576  and  _579
REMARK  247  A    between atoms: _579  and  _580
REMARK  248  A    between atoms: _585  and  _586
REMARK                            x       y       z     vdW  Elec       q    Type
REMARK                         _______ _______ _______ _____ _____    ______ ____
ROOT
ATOM      1  O   HOH     1      -9.094  18.305  -9.903  0.00  0.00    +0.000 OA
ENDROOT
TORSDOF 0
REMARK  Name = ../refined-set-2016/4a4w/4a4w_pocket.pdb
REMARK  248 active torsions:
REMARK  status: ('A' for Active; 'I' for Inactive)
REMARK    1  A    between atoms: _1  and  _3
REMARK    2  A    between atoms: _3  and  _4
REMARK    3  A    between atoms: _3  and  _6
REMARK    4  A    between atoms: _6  and  _7
REMARK    5  A    between atoms: _14  and  _15
REMARK    6  A    between atoms: _20  and  _22
REMARK    7  A    between atoms: _22  and  _23
REMARK    8  A    between atoms: _22  and  _25
REMARK    9  A    between atoms: _25  and  _26
REMARK   10  A    between atoms: _29  and  _31
REMARK   11  A    between atoms: _31  and  _32
REMARK   12  A    between atoms: _31  and  _34
REMARK   13  A    between atoms: _34  and  _35
REMARK   14  A    between atoms: _38  and  _40
REMARK   15  A    between atoms: _40  and  _41
REMARK   16  A    between atoms: _40  and  _43
REMARK   17  A    between atoms: _43  and  _44
REMARK   18  A    between atoms: _46  and  _48
REMARK   19  A    between atoms: _48  and  _49
REMARK   20  A    between atoms: _48  and  _51
REMARK   21  A    between atoms: _51  and  _52
REMARK   22  A    between atoms: _55  and  _57
REMARK   23  A    between atoms: _57  and  _58
REMARK   24  A    between atoms: _57  and  _60
REMARK   25  A    between atoms: _60  and  _61
REMARK   26  A    between atoms: _61  and  _62
REMARK   27  A    between atoms: _64  and  _66
REMARK   28  A    between atoms: _66  and  _67
REMARK   29  A    between atoms: _69  and  _71
REMARK   30  A    between atoms: _71  and  _72
REMARK   31  A    between atoms: _71  and  _74
REMARK   32  A    between atoms: _74  and  _75
REMARK   33  A    between atoms: _75  and  _76
REMARK   34  A    between atoms: _79  and  _81
REMARK   35  A    between atoms: _81  and  _82
REMARK   36  A    between atoms: _81  and  _84
REMARK   37  A    between atoms: _84  and  _85
REMARK   38  A    between atoms: _88  and  _90
REMARK   39  A    between atoms: _90  and  _91
REMARK   40  A    between atoms: _90  and  _93
REMARK   41  A    between atoms: _93  and  _94
REMARK   42  A    between atoms: _94  and  _95
REMARK   43  A    between atoms: _98  and  _100
REMARK   44  A    between atoms: _100  and  _101
REMARK   45  A    between atoms: _100  and  _103
REMARK   46  A    between atoms: _106  and  _108
REMARK   47  A    between atoms: _108  and  _109
REMARK   48  A    between atoms: _112  and  _114
REMARK   49  A    between atoms: _114  and  _115
REMARK   50  A    between atoms: _114  and  _117
REMARK   51  A    between atoms: _117  and  _118
REMARK   52  A    between atoms: _121  and  _123
REMARK   53  A    between atoms: _123  and  _124
REMARK   54  A    between atoms: _123  and  _126
REMARK   55  A    between atoms: _126  and  _127
REMARK   56  A    between atoms: _127  and  _128
REMARK   57  A    between atoms: _128  and  _129
REMARK   58  A    between atoms: _138  and  _140
REMARK   59  A    between atoms: _140  and  _141
REMARK   60  A    between atoms: _140  and  _143
REMARK   61  A    between atoms: _143  and  _144
REMARK   62  A    between atoms: _147  and  _149
REMARK   63  A    between atoms: _149  and  _150
REMARK   64  A    between atoms: _149  and  _152
REMARK   65  A    between atoms: _152  and  _153
REMARK   66  A    between atoms: _159  and  _161
REMARK   67  A    between atoms: _161  and  _162
REMARK   68  A    between atoms: _161  and  _164
REMARK   69  A    between atoms: _164  and  _165
REMARK   70  A    between atoms: _165  and  _166
REMARK   71  A    between atoms: _171  and  _173
REMARK   72  A    between atoms: _173  and  _174
REMARK   73  A    between atoms: _176  and  _178
REMARK   74  A    between atoms: _178  and  _179
REMARK   75  A    between atoms: _178  and  _181
REMARK   76  A    between atoms: _183  and  _185
REMARK   77  A    between atoms: _185  and  _186
REMARK   78  A    between atoms: _185  and  _188
REMARK   79  A    between atoms: _188  and  _189
REMARK   80  A    between atoms: _189  and  _190
REMARK   81  A    between atoms: _195  and  _197
REMARK   82  A    between atoms: _197  and  _198
REMARK   83  A    between atoms: _197  and  _200
REMARK   84  A    between atoms: _200  and  _201
REMARK   85  A    between atoms: _207  and  _209
REMARK   86  A    between atoms: _209  and  _210
REMARK   87  A    between atoms: _209  and  _212
REMARK   88  A    between atoms: _212  and  _213
REMARK   89  A    between atoms: _213  and  _214
REMARK   90  A    between atoms: _214  and  _215
REMARK   91  A    between atoms: _224  and  _226
REMARK   92  A    between atoms: _226  and  _227
REMARK   93  A    between atoms: _226  and  _229
REMARK   94  A    between atoms: _229  and  _230
REMARK   95  A    between atoms: _232  and  _234
REMARK   96  A    between atoms: _234  and  _235
REMARK   97  A    between atoms: _234  and  _237
REMARK   98  A    between atoms: _240  and  _242
REMARK   99  A    between atoms: _242  and  _243
REMARK  100  A    between atoms: _242  and  _245
REMARK  101  A    between atoms: _245  and  _246
REMARK  102  A    between atoms: _246  and  _247
REMARK  103  A    between atoms: _250  and  _252
REMARK  104  A    between atoms: _252  and  _253
REMARK  105  A    between atoms: _256  and  _258
REMARK  106  A    between atoms: _258  and  _259
REMARK  107  A    between atoms: _258  and  _261
REMARK  108  A    between atoms: _264  and  _266
REMARK  109  A    between atoms: _266  and  _267
REMARK  110  A    between atoms: _266  and  _269
REMARK  111  A    between atoms: _269  and  _270
REMARK  112  A    between atoms: _270  and  _271
REMARK  113  A    between atoms: _274  and  _276
REMARK  114  A    between atoms: _276  and  _277
REMARK  115  A    between atoms: _276  and  _279
REMARK  116  A    between atoms: _279  and  _280
REMARK  117  A    between atoms: _283  and  _285
REMARK  118  A    between atoms: _285  and  _286
REMARK  119  A    between atoms: _285  and  _288
REMARK  120  A    between atoms: _291  and  _293
REMARK  121  A    between atoms: _293  and  _294
REMARK  122  A    between atoms: _293  and  _296
REMARK  123  A    between atoms: _296  and  _297
REMARK  124  A    between atoms: _302  and  _304
REMARK  125  A    between atoms: _304  and  _305
REMARK  126  A    between atoms: _304  and  _307
REMARK  127  A    between atoms: _307  and  _308
REMARK  128  A    between atoms: _308  and  _309
REMARK  129  A    between atoms: _312  and  _314
REMARK  130  A    between atoms: _314  and  _315
REMARK  131  A    between atoms: _314  and  _317
REMARK  132  A    between atoms: _317  and  _318
REMARK  133  A    between atoms: _321  and  _323
REMARK  134  A    between atoms: _323  and  _324
REMARK  135  A    between atoms: _323  and  _326
REMARK  136  A    between atoms: _326  and  _327
REMARK  137  A    between atoms: _330  and  _332
REMARK  138  A    between atoms: _332  and  _333
REMARK  139  A    between atoms: _332  and  _335
REMARK  140  A    between atoms: _335  and  _336
REMARK  141  A    between atoms: _341  and  _342
REMARK  142  A    between atoms: _344  and  _346
REMARK  143  A    between atoms: _346  and  _347
REMARK  144  A    between atoms: _346  and  _349
REMARK  145  A    between atoms: _349  and  _350
REMARK  146  A    between atoms: _353  and  _355
REMARK  147  A    between atoms: _355  and  _356
REMARK  148  A    between atoms: _355  and  _358
REMARK  149  A    between atoms: _358  and  _359
REMARK  150  A    between atoms: _359  and  _360
REMARK  151  A    between atoms: _362  and  _364
REMARK  152  A    between atoms: _364  and  _365
REMARK  153  A    between atoms: _364  and  _367
REMARK  154  A    between atoms: _367  and  _368
REMARK  155  A    between atoms: _371  and  _373
REMARK  156  A    between atoms: _373  and  _374
REMARK  157  A    between atoms: _377  and  _379
REMARK  158  A    between atoms: _379  and  _380
REMARK  159  A    between atoms: _379  and  _382
REMARK  160  A    between atoms: _382  and  _383
REMARK  161  A    between atoms: _385  and  _387
REMARK  162  A    between atoms: _387  and  _388
REMARK  163  A    between atoms: _387  and  _390
REMARK  164  A    between atoms: _390  and  _391
REMARK  165  A    between atoms: _394  and  _396
REMARK  166  A    between atoms: _396  and  _397
REMARK  167  A    between atoms: _396  and  _399
REMARK  168  A    between atoms: _399  and  _400
REMARK  169  A    between atoms: _400  and  _401
REMARK  170  A    between atoms: _403  and  _405
REMARK  171  A    between atoms: _405  and  _406
REMARK  172  A    between atoms: _405  and  _408
REMARK  173  A    between atoms: _411  and  _413
REMARK  174  A    between atoms: _413  and  _414
REMARK  175  A    between atoms: _413  and  _416
REMARK  176  A    between atoms: _416  and  _417
REMARK  177  A    between atoms: _420  and  _422
REMARK  178  A    between atoms: _422  and  _423
REMARK  179  A    between atoms: _422  and  _425
REMARK  180  A    between atoms: _425  and  _426
REMARK  181  A    between atoms: _429  and  _431
REMARK  182  A    between atoms: _431  and  _432
REMARK  183  A    between atoms: _431  and  _434
REMARK  184  A    between atoms: _434  and  _435
REMARK  185  A    between atoms: _437  and  _439
REMARK  186  A    between atoms: _439  and  _440
REMARK  187  A    between atoms: _439  and  _442
REMARK  188  A    between atoms: _442  and  _443
REMARK  189  A    between atoms: _443  and  _444
REMARK  190  A    between atoms: _447  and  _449
REMARK  191  A    between atoms: _449  and  _450
REMARK  192  A    between atoms: _452  and  _454
REMARK  193  A    between atoms: _454  and  _455
REMARK  194  A    between atoms: _454  and  _457
REMARK  195  A    between atoms: _457  and  _458
REMARK  196  A    between atoms: _458  and  _459
REMARK  197  A    between atoms: _464  and  _466
REMARK  198  A    between atoms: _466  and  _467
REMARK  199  A    between atoms: _469  and  _471
REMARK  200  A    between atoms: _471  and  _472
REMARK  201  A    between atoms: _471  and  _474
REMARK  202  A    between atoms: _474  and  _475
REMARK  203  A    between atoms: _475  and  _476
REMARK  204  A    between atoms: _478  and  _480
REMARK  205  A    between atoms: _480  and  _481
REMARK  206  A    between atoms: _480  and  _483
REMARK  207  A    between atoms: _483  and  _484
REMARK  208  A    between atoms: _487  and  _489
REMARK  209  A    between atoms: _489  and  _490
REMARK  210  A    between atoms: _489  and  _492
REMARK  211  A    between atoms: _492  and  _493
REMARK  212  A    between atoms: _499  and  _501
REMARK  213  A    between atoms: _501  and  _502
REMARK  214  A    between atoms: _501  and  _504
REMARK  215  A    between atoms: _504  and  _505
REMARK  216  A    between atoms: _508  and  _510
REMARK  217  A    between atoms: _510  and  _511
REMARK  218  A    between atoms: _510  and  _513
REMARK  219  A    between atoms: _513  and  _514
REMARK  220  A    between atoms: _517  and  _519
REMARK  221  A    between atoms: _519  and  _520
REMARK  222  A    between atoms: _519  and  _522
REMARK  223  A    between atoms: _522  and  _523
REMARK  224  A    between atoms: _529  and  _531
REMARK  225  A    between atoms: _531  and  _532
REMARK  226  A    between atoms: _531  and  _534
REMARK  227  A    between atoms: _534  and  _535
REMARK  228  A    between atoms: _535  and  _536
REMARK  229  A    between atoms: _538  and  _540
REMARK  230  A    between atoms: _540  and  _541
REMARK  231  A    between atoms: _540  and  _543
REMARK  232  A    between atoms: _543  and  _544
REMARK  233  A    between atoms: _544  and  _545
REMARK  234  A    between atoms: _545  and  _546
REMARK  235  A    between atoms: _546  and  _547
REMARK  236  A    between atoms: _551  and  _553
REMARK  237  A    between atoms: _553  and  _554
REMARK  238  A    between atoms: _553  and  _556
REMARK  239  A    between atoms: _556  and  _557
REMARK  240  A    between atoms: _563  and  _565
REMARK  241  A    between atoms: _565  and  _566
REMARK  242  A    between atoms: _565  and  _568
REMARK  243  A    between atoms: _568  and  _569
REMARK  244  A    between atoms: _574  and  _576
REMARK  245  A    between atoms: _576  and  _577
REMARK  246  A    between atoms: _576  and  _579
REMARK  247  A    between atoms: _579  and  _580
REMARK  248  A    between atoms: _585  and  _586
REMARK                            x       y       z     vdW  Elec       q    Type
REMARK                         _______ _______ _______ _____ _____    ______ ____
ROOT
ATOM      1  O   HOH     1     -18.128  10.154 -13.597  0.00  0.00    +0.000 OA
ENDROOT
TORSDOF 0
REMARK  Name = ../refined-set-2016/4a4w/4a4w_pocket.pdb
REMARK  248 active torsions:
REMARK  status: ('A' for Active; 'I' for Inactive)
REMARK    1  A    between atoms: _1  and  _3
REMARK    2  A    between atoms: _3  and  _4
REMARK    3  A    between atoms: _3  and  _6
REMARK    4  A    between atoms: _6  and  _7
REMARK    5  A    between atoms: _14  and  _15
REMARK    6  A    between atoms: _20  and  _22
REMARK    7  A    between atoms: _22  and  _23
REMARK    8  A    between atoms: _22  and  _25
REMARK    9  A    between atoms: _25  and  _26
REMARK   10  A    between atoms: _29  and  _31
REMARK   11  A    between atoms: _31  and  _32
REMARK   12  A    between atoms: _31  and  _34
REMARK   13  A    between atoms: _34  and  _35
REMARK   14  A    between atoms: _38  and  _40
REMARK   15  A    between atoms: _40  and  _41
REMARK   16  A    between atoms: _40  and  _43
REMARK   17  A    between atoms: _43  and  _44
REMARK   18  A    between atoms: _46  and  _48
REMARK   19  A    between atoms: _48  and  _49
REMARK   20  A    between atoms: _48  and  _51
REMARK   21  A    between atoms: _51  and  _52
REMARK   22  A    between atoms: _55  and  _57
REMARK   23  A    between atoms: _57  and  _58
REMARK   24  A    between atoms: _57  and  _60
REMARK   25  A    between atoms: _60  and  _61
REMARK   26  A    between atoms: _61  and  _62
REMARK   27  A    between atoms: _64  and  _66
REMARK   28  A    between atoms: _66  and  _67
REMARK   29  A    between atoms: _69  and  _71
REMARK   30  A    between atoms: _71  and  _72
REMARK   31  A    between atoms: _71  and  _74
REMARK   32  A    between atoms: _74  and  _75
REMARK   33  A    between atoms: _75  and  _76
REMARK   34  A    between atoms: _79  and  _81
REMARK   35  A    between atoms: _81  and  _82
REMARK   36  A    between atoms: _81  and  _84
REMARK   37  A    between atoms: _84  and  _85
REMARK   38  A    between atoms: _88  and  _90
REMARK   39  A    between atoms: _90  and  _91
REMARK   40  A    between atoms: _90  and  _93
REMARK   41  A    between atoms: _93  and  _94
REMARK   42  A    between atoms: _94  and  _95
REMARK   43  A    between atoms: _98  and  _100
REMARK   44  A    between atoms: _100  and  _101
REMARK   45  A    between atoms: _100  and  _103
REMARK   46  A    between atoms: _106  and  _108
REMARK   47  A    between atoms: _108  and  _109
REMARK   48  A    between atoms: _112  and  _114
REMARK   49  A    between atoms: _114  and  _115
REMARK   50  A    between atoms: _114  and  _117
REMARK   51  A    between atoms: _117  and  _118
REMARK   52  A    between atoms: _121  and  _123
REMARK   53  A    between atoms: _123  and  _124
REMARK   54  A    between atoms: _123  and  _126
REMARK   55  A    between atoms: _126  and  _127
REMARK   56  A    between atoms: _127  and  _128
REMARK   57  A    between atoms: _128  and  _129
REMARK   58  A    between atoms: _138  and  _140
REMARK   59  A    between atoms: _140  and  _141
REMARK   60  A    between atoms: _140  and  _143
REMARK   61  A    between atoms: _143  and  _144
REMARK   62  A    between atoms: _147  and  _149
REMARK   63  A    between atoms: _149  and  _150
REMARK   64  A    between atoms: _149  and  _152
REMARK   65  A    between atoms: _152  and  _153
REMARK   66  A    between atoms: _159  and  _161
REMARK   67  A    between atoms: _161  and  _162
REMARK   68  A    between atoms: _161  and  _164
REMARK   69  A    between atoms: _164  and  _165
REMARK   70  A    between atoms: _165  and  _166
REMARK   71  A    between atoms: _171  and  _173
REMARK   72  A    between atoms: _173  and  _174
REMARK   73  A    between atoms: _176  and  _178
REMARK   74  A    between atoms: _178  and  _179
REMARK   75  A    between atoms: _178  and  _181
REMARK   76  A    between atoms: _183  and  _185
REMARK   77  A    between atoms: _185  and  _186
REMARK   78  A    between atoms: _185  and  _188
REMARK   79  A    between atoms: _188  and  _189
REMARK   80  A    between atoms: _189  and  _190
REMARK   81  A    between atoms: _195  and  _197
REMARK   82  A    between atoms: _197  and  _198
REMARK   83  A    between atoms: _197  and  _200
REMARK   84  A    between atoms: _200  and  _201
REMARK   85  A    between atoms: _207  and  _209
REMARK   86  A    between atoms: _209  and  _210
REMARK   87  A    between atoms: _209  and  _212
REMARK   88  A    between atoms: _212  and  _213
REMARK   89  A    between atoms: _213  and  _214
REMARK   90  A    between atoms: _214  and  _215
REMARK   91  A    between atoms: _224  and  _226
REMARK   92  A    between atoms: _226  and  _227
REMARK   93  A    between atoms: _226  and  _229
REMARK   94  A    between atoms: _229  and  _230
REMARK   95  A    between atoms: _232  and  _234
REMARK   96  A    between atoms: _234  and  _235
REMARK   97  A    between atoms: _234  and  _237
REMARK   98  A    between atoms: _240  and  _242
REMARK   99  A    between atoms: _242  and  _243
REMARK  100  A    between atoms: _242  and  _245
REMARK  101  A    between atoms: _245  and  _246
REMARK  102  A    between atoms: _246  and  _247
REMARK  103  A    between atoms: _250  and  _252
REMARK  104  A    between atoms: _252  and  _253
REMARK  105  A    between atoms: _256  and  _258
REMARK  106  A    between atoms: _258  and  _259
REMARK  107  A    between atoms: _258  and  _261
REMARK  108  A    between atoms: _264  and  _266
REMARK  109  A    between atoms: _266  and  _267
REMARK  110  A    between atoms: _266  and  _269
REMARK  111  A    between atoms: _269  and  _270
REMARK  112  A    between atoms: _270  and  _271
REMARK  113  A    between atoms: _274  and  _276
REMARK  114  A    between atoms: _276  and  _277
REMARK  115  A    between atoms: _276  and  _279
REMARK  116  A    between atoms: _279  and  _280
REMARK  117  A    between atoms: _283  and  _285
REMARK  118  A    between atoms: _285  and  _286
REMARK  119  A    between atoms: _285  and  _288
REMARK  120  A    between atoms: _291  and  _293
REMARK  121  A    between atoms: _293  and  _294
REMARK  122  A    between atoms: _293  and  _296
REMARK  123  A    between atoms: _296  and  _297
REMARK  124  A    between atoms: _302  and  _304
REMARK  125  A    between atoms: _304  and  _305
REMARK  126  A    between atoms: _304  and  _307
REMARK  127  A    between atoms: _307  and  _308
REMARK  128  A    between atoms: _308  and  _309
REMARK  129  A    between atoms: _312  and  _314
REMARK  130  A    between atoms: _314  and  _315
REMARK  131  A    between atoms: _314  and  _317
REMARK  132  A    between atoms: _317  and  _318
REMARK  133  A    between atoms: _321  and  _323
REMARK  134  A    between atoms: _323  and  _324
REMARK  135  A    between atoms: _323  and  _326
REMARK  136  A    between atoms: _326  and  _327
REMARK  137  A    between atoms: _330  and  _332
REMARK  138  A    between atoms: _332  and  _333
REMARK  139  A    between atoms: _332  and  _335
REMARK  140  A    between atoms: _335  and  _336
REMARK  141  A    between atoms: _341  and  _342
REMARK  142  A    between atoms: _344  and  _346
REMARK  143  A    between atoms: _346  and  _347
REMARK  144  A    between atoms: _346  and  _349
REMARK  145  A    between atoms: _349  and  _350
REMARK  146  A    between atoms: _353  and  _355
REMARK  147  A    between atoms: _355  and  _356
REMARK  148  A    between atoms: _355  and  _358
REMARK  149  A    between atoms: _358  and  _359
REMARK  150  A    between atoms: _359  and  _360
REMARK  151  A    between atoms: _362  and  _364
REMARK  152  A    between atoms: _364  and  _365
REMARK  153  A    between atoms: _364  and  _367
REMARK  154  A    between atoms: _367  and  _368
REMARK  155  A    between atoms: _371  and  _373
REMARK  156  A    between atoms: _373  and  _374
REMARK  157  A    between atoms: _377  and  _379
REMARK  158  A    between atoms: _379  and  _380
REMARK  159  A    between atoms: _379  and  _382
REMARK  160  A    between atoms: _382  and  _383
REMARK  161  A    between atoms: _385  and  _387
REMARK  162  A    between atoms: _387  and  _388
REMARK  163  A    between atoms: _387  and  _390
REMARK  164  A    between atoms: _390  and  _391
REMARK  165  A    between atoms: _394  and  _396
REMARK  166  A    between atoms: _396  and  _397
REMARK  167  A    between atoms: _396  and  _399
REMARK  168  A    between atoms: _399  and  _400
REMARK  169  A    between atoms: _400  and  _401
REMARK  170  A    between atoms: _403  and  _405
REMARK  171  A    between atoms: _405  and  _406
REMARK  172  A    between atoms: _405  and  _408
REMARK  173  A    between atoms: _411  and  _413
REMARK  174  A    between atoms: _413  and  _414
REMARK  175  A    between atoms: _413  and  _416
REMARK  176  A    between atoms: _416  and  _417
REMARK  177  A    between atoms: _420  and  _422
REMARK  178  A    between atoms: _422  and  _423
REMARK  179  A    between atoms: _422  and  _425
REMARK  180  A    between atoms: _425  and  _426
REMARK  181  A    between atoms: _429  and  _431
REMARK  182  A    between atoms: _431  and  _432
REMARK  183  A    between atoms: _431  and  _434
REMARK  184  A    between atoms: _434  and  _435
REMARK  185  A    between atoms: _437  and  _439
REMARK  186  A    between atoms: _439  and  _440
REMARK  187  A    between atoms: _439  and  _442
REMARK  188  A    between atoms: _442  and  _443
REMARK  189  A    between atoms: _443  and  _444
REMARK  190  A    between atoms: _447  and  _449
REMARK  191  A    between atoms: _449  and  _450
REMARK  192  A    between atoms: _452  and  _454
REMARK  193  A    between atoms: _454  and  _455
REMARK  194  A    between atoms: _454  and  _457
REMARK  195  A    between atoms: _457  and  _458
REMARK  196  A    between atoms: _458  and  _459
REMARK  197  A    between atoms: _464  and  _466
REMARK  198  A    between atoms: _466  and  _467
REMARK  199  A    between atoms: _469  and  _471
REMARK  200  A    between atoms: _471  and  _472
REMARK  201  A    between atoms: _471  and  _474
REMARK  202  A    between atoms: _474  and  _475
REMARK  203  A    between atoms: _475  and  _476
REMARK  204  A    between atoms: _478  and  _480
REMARK  205  A    between atoms: _480  and  _481
REMARK  206  A    between atoms: _480  and  _483
REMARK  207  A    between atoms: _483  and  _484
REMARK  208  A    between atoms: _487  and  _489
REMARK  209  A    between atoms: _489  and  _490
REMARK  210  A    between atoms: _489  and  _492
REMARK  211  A    between atoms: _492  and  _493
REMARK  212  A    between atoms: _499  and  _501
REMARK  213  A    between atoms: _501  and  _502
REMARK  214  A    between atoms: _501  and  _504
REMARK  215  A    between atoms: _504  and  _505
REMARK  216  A    between atoms: _508  and  _510
REMARK  217  A    between atoms: _510  and  _511
REMARK  218  A    between atoms: _510  and  _513
REMARK  219  A    between atoms: _513  and  _514
REMARK  220  A    between atoms: _517  and  _519
REMARK  221  A    between atoms: _519  and  _520
REMARK  222  A    between atoms: _519  and  _522
REMARK  223  A    between atoms: _522  and  _523
REMARK  224  A    between atoms: _529  and  _531
REMARK  225  A    between atoms: _531  and  _532
REMARK  226  A    between atoms: _531  and  _534
REMARK  227  A    between atoms: _534  and  _535
REMARK  228  A    between atoms: _535  and  _536
REMARK  229  A    between atoms: _538  and  _540
REMARK  230  A    between atoms: _540  and  _541
REMARK  231  A    between atoms: _540  and  _543
REMARK  232  A    between atoms: _543  and  _544
REMARK  233  A    between atoms: _544  and  _545
REMARK  234  A    between atoms: _545  and  _546
REMARK  235  A    between atoms: _546  and  _547
REMARK  236  A    between atoms: _551  and  _553
REMARK  237  A    between atoms: _553  and  _554
REMARK  238  A    between atoms: _553  and  _556
REMARK  239  A    between atoms: _556  and  _557
REMARK  240  A    between atoms: _563  and  _565
REMARK  241  A    between atoms: _565  and  _566
REMARK  242  A    between atoms: _565  and  _568
REMARK  243  A    between atoms: _568  and  _569
REMARK  244  A    between atoms: _574  and  _576
REMARK  245  A    between atoms: _576  and  _577
REMARK  246  A    between atoms: _576  and  _579
REMARK  247  A    between atoms: _579  and  _580
REMARK  248  A    between atoms: _585  and  _586
REMARK                            x       y       z     vdW  Elec       q    Type
REMARK                         _______ _______ _______ _____ _____    ______ ____
ROOT
ATOM      1  O   HOH     1     -19.376  17.315 -17.484  0.00  0.00    +0.000 OA
ENDROOT
TORSDOF 0
REMARK  Name = ../refined-set-2016/4a4w/4a4w_pocket.pdb
REMARK  248 active torsions:
REMARK  status: ('A' for Active; 'I' for Inactive)
REMARK    1  A    between atoms: _1  and  _3
REMARK    2  A    between atoms: _3  and  _4
REMARK    3  A    between atoms: _3  and  _6
REMARK    4  A    between atoms: _6  and  _7
REMARK    5  A    between atoms: _14  and  _15
REMARK    6  A    between atoms: _20  and  _22
REMARK    7  A    between atoms: _22  and  _23
REMARK    8  A    between atoms: _22  and  _25
REMARK    9  A    between atoms: _25  and  _26
REMARK   10  A    between atoms: _29  and  _31
REMARK   11  A    between atoms: _31  and  _32
REMARK   12  A    between atoms: _31  and  _34
REMARK   13  A    between atoms: _34  and  _35
REMARK   14  A    between atoms: _38  and  _40
REMARK   15  A    between atoms: _40  and  _41
REMARK   16  A    between atoms: _40  and  _43
REMARK   17  A    between atoms: _43  and  _44
REMARK   18  A    between atoms: _46  and  _48
REMARK   19  A    between atoms: _48  and  _49
REMARK   20  A    between atoms: _48  and  _51
REMARK   21  A    between atoms: _51  and  _52
REMARK   22  A    between atoms: _55  and  _57
REMARK   23  A    between atoms: _57  and  _58
REMARK   24  A    between atoms: _57  and  _60
REMARK   25  A    between atoms: _60  and  _61
REMARK   26  A    between atoms: _61  and  _62
REMARK   27  A    between atoms: _64  and  _66
REMARK   28  A    between atoms: _66  and  _67
REMARK   29  A    between atoms: _69  and  _71
REMARK   30  A    between atoms: _71  and  _72
REMARK   31  A    between atoms: _71  and  _74
REMARK   32  A    between atoms: _74  and  _75
REMARK   33  A    between atoms: _75  and  _76
REMARK   34  A    between atoms: _79  and  _81
REMARK   35  A    between atoms: _81  and  _82
REMARK   36  A    between atoms: _81  and  _84
REMARK   37  A    between atoms: _84  and  _85
REMARK   38  A    between atoms: _88  and  _90
REMARK   39  A    between atoms: _90  and  _91
REMARK   40  A    between atoms: _90  and  _93
REMARK   41  A    between atoms: _93  and  _94
REMARK   42  A    between atoms: _94  and  _95
REMARK   43  A    between atoms: _98  and  _100
REMARK   44  A    between atoms: _100  and  _101
REMARK   45  A    between atoms: _100  and  _103
REMARK   46  A    between atoms: _106  and  _108
REMARK   47  A    between atoms: _108  and  _109
REMARK   48  A    between atoms: _112  and  _114
REMARK   49  A    between atoms: _114  and  _115
REMARK   50  A    between atoms: _114  and  _117
REMARK   51  A    between atoms: _117  and  _118
REMARK   52  A    between atoms: _121  and  _123
REMARK   53  A    between atoms: _123  and  _124
REMARK   54  A    between atoms: _123  and  _126
REMARK   55  A    between atoms: _126  and  _127
REMARK   56  A    between atoms: _127  and  _128
REMARK   57  A    between atoms: _128  and  _129
REMARK   58  A    between atoms: _138  and  _140
REMARK   59  A    between atoms: _140  and  _141
REMARK   60  A    between atoms: _140  and  _143
REMARK   61  A    between atoms: _143  and  _144
REMARK   62  A    between atoms: _147  and  _149
REMARK   63  A    between atoms: _149  and  _150
REMARK   64  A    between atoms: _149  and  _152
REMARK   65  A    between atoms: _152  and  _153
REMARK   66  A    between atoms: _159  and  _161
REMARK   67  A    between atoms: _161  and  _162
REMARK   68  A    between atoms: _161  and  _164
REMARK   69  A    between atoms: _164  and  _165
REMARK   70  A    between atoms: _165  and  _166
REMARK   71  A    between atoms: _171  and  _173
REMARK   72  A    between atoms: _173  and  _174
REMARK   73  A    between atoms: _176  and  _178
REMARK   74  A    between atoms: _178  and  _179
REMARK   75  A    between atoms: _178  and  _181
REMARK   76  A    between atoms: _183  and  _185
REMARK   77  A    between atoms: _185  and  _186
REMARK   78  A    between atoms: _185  and  _188
REMARK   79  A    between atoms: _188  and  _189
REMARK   80  A    between atoms: _189  and  _190
REMARK   81  A    between atoms: _195  and  _197
REMARK   82  A    between atoms: _197  and  _198
REMARK   83  A    between atoms: _197  and  _200
REMARK   84  A    between atoms: _200  and  _201
REMARK   85  A    between atoms: _207  and  _209
REMARK   86  A    between atoms: _209  and  _210
REMARK   87  A    between atoms: _209  and  _212
REMARK   88  A    between atoms: _212  and  _213
REMARK   89  A    between atoms: _213  and  _214
REMARK   90  A    between atoms: _214  and  _215
REMARK   91  A    between atoms: _224  and  _226
REMARK   92  A    between atoms: _226  and  _227
REMARK   93  A    between atoms: _226  and  _229
REMARK   94  A    between atoms: _229  and  _230
REMARK   95  A    between atoms: _232  and  _234
REMARK   96  A    between atoms: _234  and  _235
REMARK   97  A    between atoms: _234  and  _237
REMARK   98  A    between atoms: _240  and  _242
REMARK   99  A    between atoms: _242  and  _243
REMARK  100  A    between atoms: _242  and  _245
REMARK  101  A    between atoms: _245  and  _246
REMARK  102  A    between atoms: _246  and  _247
REMARK  103  A    between atoms: _250  and  _252
REMARK  104  A    between atoms: _252  and  _253
REMARK  105  A    between atoms: _256  and  _258
REMARK  106  A    between atoms: _258  and  _259
REMARK  107  A    between atoms: _258  and  _261
REMARK  108  A    between atoms: _264  and  _266
REMARK  109  A    between atoms: _266  and  _267
REMARK  110  A    between atoms: _266  and  _269
REMARK  111  A    between atoms: _269  and  _270
REMARK  112  A    between atoms: _270  and  _271
REMARK  113  A    between atoms: _274  and  _276
REMARK  114  A    between atoms: _276  and  _277
REMARK  115  A    between atoms: _276  and  _279
REMARK  116  A    between atoms: _279  and  _280
REMARK  117  A    between atoms: _283  and  _285
REMARK  118  A    between atoms: _285  and  _286
REMARK  119  A    between atoms: _285  and  _288
REMARK  120  A    between atoms: _291  and  _293
REMARK  121  A    between atoms: _293  and  _294
REMARK  122  A    between atoms: _293  and  _296
REMARK  123  A    between atoms: _296  and  _297
REMARK  124  A    between atoms: _302  and  _304
REMARK  125  A    between atoms: _304  and  _305
REMARK  126  A    between atoms: _304  and  _307
REMARK  127  A    between atoms: _307  and  _308
REMARK  128  A    between atoms: _308  and  _309
REMARK  129  A    between atoms: _312  and  _314
REMARK  130  A    between atoms: _314  and  _315
REMARK  131  A    between atoms: _314  and  _317
REMARK  132  A    between atoms: _317  and  _318
REMARK  133  A    between atoms: _321  and  _323
REMARK  134  A    between atoms: _323  and  _324
REMARK  135  A    between atoms: _323  and  _326
REMARK  136  A    between atoms: _326  and  _327
REMARK  137  A    between atoms: _330  and  _332
REMARK  138  A    between atoms: _332  and  _333
REMARK  139  A    between atoms: _332  and  _335
REMARK  140  A    between atoms: _335  and  _336
REMARK  141  A    between atoms: _341  and  _342
REMARK  142  A    between atoms: _344  and  _346
REMARK  143  A    between atoms: _346  and  _347
REMARK  144  A    between atoms: _346  and  _349
REMARK  145  A    between atoms: _349  and  _350
REMARK  146  A    between atoms: _353  and  _355
REMARK  147  A    between atoms: _355  and  _356
REMARK  148  A    between atoms: _355  and  _358
REMARK  149  A    between atoms: _358  and  _359
REMARK  150  A    between atoms: _359  and  _360
REMARK  151  A    between atoms: _362  and  _364
REMARK  152  A    between atoms: _364  and  _365
REMARK  153  A    between atoms: _364  and  _367
REMARK  154  A    between atoms: _367  and  _368
REMARK  155  A    between atoms: _371  and  _373
REMARK  156  A    between atoms: _373  and  _374
REMARK  157  A    between atoms: _377  and  _379
REMARK  158  A    between atoms: _379  and  _380
REMARK  159  A    between atoms: _379  and  _382
REMARK  160  A    between atoms: _382  and  _383
REMARK  161  A    between atoms: _385  and  _387
REMARK  162  A    between atoms: _387  and  _388
REMARK  163  A    between atoms: _387  and  _390
REMARK  164  A    between atoms: _390  and  _391
REMARK  165  A    between atoms: _394  and  _396
REMARK  166  A    between atoms: _396  and  _397
REMARK  167  A    between atoms: _396  and  _399
REMARK  168  A    between atoms: _399  and  _400
REMARK  169  A    between atoms: _400  and  _401
REMARK  170  A    between atoms: _403  and  _405
REMARK  171  A    between atoms: _405  and  _406
REMARK  172  A    between atoms: _405  and  _408
REMARK  173  A    between atoms: _411  and  _413
REMARK  174  A    between atoms: _413  and  _414
REMARK  175  A    between atoms: _413  and  _416
REMARK  176  A    between atoms: _416  and  _417
REMARK  177  A    between atoms: _420  and  _422
REMARK  178  A    between atoms: _422  and  _423
REMARK  179  A    between atoms: _422  and  _425
REMARK  180  A    between atoms: _425  and  _426
REMARK  181  A    between atoms: _429  and  _431
REMARK  182  A    between atoms: _431  and  _432
REMARK  183  A    between atoms: _431  and  _434
REMARK  184  A    between atoms: _434  and  _435
REMARK  185  A    between atoms: _437  and  _439
REMARK  186  A    between atoms: _439  and  _440
REMARK  187  A    between atoms: _439  and  _442
REMARK  188  A    between atoms: _442  and  _443
REMARK  189  A    between atoms: _443  and  _444
REMARK  190  A    between atoms: _447  and  _449
REMARK  191  A    between atoms: _449  and  _450
REMARK  192  A    between atoms: _452  and  _454
REMARK  193  A    between atoms: _454  and  _455
REMARK  194  A    between atoms: _454  and  _457
REMARK  195  A    between atoms: _457  and  _458
REMARK  196  A    between atoms: _458  and  _459
REMARK  197  A    between atoms: _464  and  _466
REMARK  198  A    between atoms: _466  and  _467
REMARK  199  A    between atoms: _469  and  _471
REMARK  200  A    between atoms: _471  and  _472
REMARK  201  A    between atoms: _471  and  _474
REMARK  202  A    between atoms: _474  and  _475
REMARK  203  A    between atoms: _475  and  _476
REMARK  204  A    between atoms: _478  and  _480
REMARK  205  A    between atoms: _480  and  _481
REMARK  206  A    between atoms: _480  and  _483
REMARK  207  A    between atoms: _483  and  _484
REMARK  208  A    between atoms: _487  and  _489
REMARK  209  A    between atoms: _489  and  _490
REMARK  210  A    between atoms: _489  and  _492
REMARK  211  A    between atoms: _492  and  _493
REMARK  212  A    between atoms: _499  and  _501
REMARK  213  A    between atoms: _501  and  _502
REMARK  214  A    between atoms: _501  and  _504
REMARK  215  A    between atoms: _504  and  _505
REMARK  216  A    between atoms: _508  and  _510
REMARK  217  A    between atoms: _510  and  _511
REMARK  218  A    between atoms: _510  and  _513
REMARK  219  A    between atoms: _513  and  _514
REMARK  220  A    between atoms: _517  and  _519
REMARK  221  A    between atoms: _519  and  _520
REMARK  222  A    between atoms: _519  and  _522
REMARK  223  A    between atoms: _522  and  _523
REMARK  224  A    between atoms: _529  and  _531
REMARK  225  A    between atoms: _531  and  _532
REMARK  226  A    between atoms: _531  and  _534
REMARK  227  A    between atoms: _534  and  _535
REMARK  228  A    between atoms: _535  and  _536
REMARK  229  A    between atoms: _538  and  _540
REMARK  230  A    between atoms: _540  and  _541
REMARK  231  A    between atoms: _540  and  _543
REMARK  232  A    between atoms: _543  and  _544
REMARK  233  A    between atoms: _544  and  _545
REMARK  234  A    between atoms: _545  and  _546
REMARK  235  A    between atoms: _546  and  _547
REMARK  236  A    between atoms: _551  and  _553
REMARK  237  A    between atoms: _553  and  _554
REMARK  238  A    between atoms: _553  and  _556
REMARK  239  A    between atoms: _556  and  _557
REMARK  240  A    between atoms: _563  and  _565
REMARK  241  A    between atoms: _565  and  _566
REMARK  242  A    between atoms: _565  and  _568
REMARK  243  A    between atoms: _568  and  _569
REMARK  244  A    between atoms: _574  and  _576
REMARK  245  A    between atoms: _576  and  _577
REMARK  246  A    between atoms: _576  and  _579
REMARK  247  A    between atoms: _579  and  _580
REMARK  248  A    between atoms: _585  and  _586
REMARK                            x       y       z     vdW  Elec       q    Type
REMARK                         _______ _______ _______ _____ _____    ______ ____
ROOT
ATOM      1  O   HOH     1     -10.714  18.196  -7.170  0.00  0.00    +0.000 OA
ENDROOT
TORSDOF 0
REMARK  Name = ../refined-set-2016/4a4w/4a4w_pocket.pdb
REMARK  248 active torsions:
REMARK  status: ('A' for Active; 'I' for Inactive)
REMARK    1  A    between atoms: _1  and  _3
REMARK    2  A    between atoms: _3  and  _4
REMARK    3  A    between atoms: _3  and  _6
REMARK    4  A    between atoms: _6  and  _7
REMARK    5  A    between atoms: _14  and  _15
REMARK    6  A    between atoms: _20  and  _22
REMARK    7  A    between atoms: _22  and  _23
REMARK    8  A    between atoms: _22  and  _25
REMARK    9  A    between atoms: _25  and  _26
REMARK   10  A    between atoms: _29  and  _31
REMARK   11  A    between atoms: _31  and  _32
REMARK   12  A    between atoms: _31  and  _34
REMARK   13  A    between atoms: _34  and  _35
REMARK   14  A    between atoms: _38  and  _40
REMARK   15  A    between atoms: _40  and  _41
REMARK   16  A    between atoms: _40  and  _43
REMARK   17  A    between atoms: _43  and  _44
REMARK   18  A    between atoms: _46  and  _48
REMARK   19  A    between atoms: _48  and  _49
REMARK   20  A    between atoms: _48  and  _51
REMARK   21  A    between atoms: _51  and  _52
REMARK   22  A    between atoms: _55  and  _57
REMARK   23  A    between atoms: _57  and  _58
REMARK   24  A    between atoms: _57  and  _60
REMARK   25  A    between atoms: _60  and  _61
REMARK   26  A    between atoms: _61  and  _62
REMARK   27  A    between atoms: _64  and  _66
REMARK   28  A    between atoms: _66  and  _67
REMARK   29  A    between atoms: _69  and  _71
REMARK   30  A    between atoms: _71  and  _72
REMARK   31  A    between atoms: _71  and  _74
REMARK   32  A    between atoms: _74  and  _75
REMARK   33  A    between atoms: _75  and  _76
REMARK   34  A    between atoms: _79  and  _81
REMARK   35  A    between atoms: _81  and  _82
REMARK   36  A    between atoms: _81  and  _84
REMARK   37  A    between atoms: _84  and  _85
REMARK   38  A    between atoms: _88  and  _90
REMARK   39  A    between atoms: _90  and  _91
REMARK   40  A    between atoms: _90  and  _93
REMARK   41  A    between atoms: _93  and  _94
REMARK   42  A    between atoms: _94  and  _95
REMARK   43  A    between atoms: _98  and  _100
REMARK   44  A    between atoms: _100  and  _101
REMARK   45  A    between atoms: _100  and  _103
REMARK   46  A    between atoms: _106  and  _108
REMARK   47  A    between atoms: _108  and  _109
REMARK   48  A    between atoms: _112  and  _114
REMARK   49  A    between atoms: _114  and  _115
REMARK   50  A    between atoms: _114  and  _117
REMARK   51  A    between atoms: _117  and  _118
REMARK   52  A    between atoms: _121  and  _123
REMARK   53  A    between atoms: _123  and  _124
REMARK   54  A    between atoms: _123  and  _126
REMARK   55  A    between atoms: _126  and  _127
REMARK   56  A    between atoms: _127  and  _128
REMARK   57  A    between atoms: _128  and  _129
REMARK   58  A    between atoms: _138  and  _140
REMARK   59  A    between atoms: _140  and  _141
REMARK   60  A    between atoms: _140  and  _143
REMARK   61  A    between atoms: _143  and  _144
REMARK   62  A    between atoms: _147  and  _149
REMARK   63  A    between atoms: _149  and  _150
REMARK   64  A    between atoms: _149  and  _152
REMARK   65  A    between atoms: _152  and  _153
REMARK   66  A    between atoms: _159  and  _161
REMARK   67  A    between atoms: _161  and  _162
REMARK   68  A    between atoms: _161  and  _164
REMARK   69  A    between atoms: _164  and  _165
REMARK   70  A    between atoms: _165  and  _166
REMARK   71  A    between atoms: _171  and  _173
REMARK   72  A    between atoms: _173  and  _174
REMARK   73  A    between atoms: _176  and  _178
REMARK   74  A    between atoms: _178  and  _179
REMARK   75  A    between atoms: _178  and  _181
REMARK   76  A    between atoms: _183  and  _185
REMARK   77  A    between atoms: _185  and  _186
REMARK   78  A    between atoms: _185  and  _188
REMARK   79  A    between atoms: _188  and  _189
REMARK   80  A    between atoms: _189  and  _190
REMARK   81  A    between atoms: _195  and  _197
REMARK   82  A    between atoms: _197  and  _198
REMARK   83  A    between atoms: _197  and  _200
REMARK   84  A    between atoms: _200  and  _201
REMARK   85  A    between atoms: _207  and  _209
REMARK   86  A    between atoms: _209  and  _210
REMARK   87  A    between atoms: _209  and  _212
REMARK   88  A    between atoms: _212  and  _213
REMARK   89  A    between atoms: _213  and  _214
REMARK   90  A    between atoms: _214  and  _215
REMARK   91  A    between atoms: _224  and  _226
REMARK   92  A    between atoms: _226  and  _227
REMARK   93  A    between atoms: _226  and  _229
REMARK   94  A    between atoms: _229  and  _230
REMARK   95  A    between atoms: _232  and  _234
REMARK   96  A    between atoms: _234  and  _235
REMARK   97  A    between atoms: _234  and  _237
REMARK   98  A    between atoms: _240  and  _242
REMARK   99  A    between atoms: _242  and  _243
REMARK  100  A    between atoms: _242  and  _245
REMARK  101  A    between atoms: _245  and  _246
REMARK  102  A    between atoms: _246  and  _247
REMARK  103  A    between atoms: _250  and  _252
REMARK  104  A    between atoms: _252  and  _253
REMARK  105  A    between atoms: _256  and  _258
REMARK  106  A    between atoms: _258  and  _259
REMARK  107  A    between atoms: _258  and  _261
REMARK  108  A    between atoms: _264  and  _266
REMARK  109  A    between atoms: _266  and  _267
REMARK  110  A    between atoms: _266  and  _269
REMARK  111  A    between atoms: _269  and  _270
REMARK  112  A    between atoms: _270  and  _271
REMARK  113  A    between atoms: _274  and  _276
REMARK  114  A    between atoms: _276  and  _277
REMARK  115  A    between atoms: _276  and  _279
REMARK  116  A    between atoms: _279  and  _280
REMARK  117  A    between atoms: _283  and  _285
REMARK  118  A    between atoms: _285  and  _286
REMARK  119  A    between atoms: _285  and  _288
REMARK  120  A    between atoms: _291  and  _293
REMARK  121  A    between atoms: _293  and  _294
REMARK  122  A    between atoms: _293  and  _296
REMARK  123  A    between atoms: _296  and  _297
REMARK  124  A    between atoms: _302  and  _304
REMARK  125  A    between atoms: _304  and  _305
REMARK  126  A    between atoms: _304  and  _307
REMARK  127  A    between atoms: _307  and  _308
REMARK  128  A    between atoms: _308  and  _309
REMARK  129  A    between atoms: _312  and  _314
REMARK  130  A    between atoms: _314  and  _315
REMARK  131  A    between atoms: _314  and  _317
REMARK  132  A    between atoms: _317  and  _318
REMARK  133  A    between atoms: _321  and  _323
REMARK  134  A    between atoms: _323  and  _324
REMARK  135  A    between atoms: _323  and  _326
REMARK  136  A    between atoms: _326  and  _327
REMARK  137  A    between atoms: _330  and  _332
REMARK  138  A    between atoms: _332  and  _333
REMARK  139  A    between atoms: _332  and  _335
REMARK  140  A    between atoms: _335  and  _336
REMARK  141  A    between atoms: _341  and  _342
REMARK  142  A    between atoms: _344  and  _346
REMARK  143  A    between atoms: _346  and  _347
REMARK  144  A    between atoms: _346  and  _349
REMARK  145  A    between atoms: _349  and  _350
REMARK  146  A    between atoms: _353  and  _355
REMARK  147  A    between atoms: _355  and  _356
REMARK  148  A    between atoms: _355  and  _358
REMARK  149  A    between atoms: _358  and  _359
REMARK  150  A    between atoms: _359  and  _360
REMARK  151  A    between atoms: _362  and  _364
REMARK  152  A    between atoms: _364  and  _365
REMARK  153  A    between atoms: _364  and  _367
REMARK  154  A    between atoms: _367  and  _368
REMARK  155  A    between atoms: _371  and  _373
REMARK  156  A    between atoms: _373  and  _374
REMARK  157  A    between atoms: _377  and  _379
REMARK  158  A    between atoms: _379  and  _380
REMARK  159  A    between atoms: _379  and  _382
REMARK  160  A    between atoms: _382  and  _383
REMARK  161  A    between atoms: _385  and  _387
REMARK  162  A    between atoms: _387  and  _388
REMARK  163  A    between atoms: _387  and  _390
REMARK  164  A    between atoms: _390  and  _391
REMARK  165  A    between atoms: _394  and  _396
REMARK  166  A    between atoms: _396  and  _397
REMARK  167  A    between atoms: _396  and  _399
REMARK  168  A    between atoms: _399  and  _400
REMARK  169  A    between atoms: _400  and  _401
REMARK  170  A    between atoms: _403  and  _405
REMARK  171  A    between atoms: _405  and  _406
REMARK  172  A    between atoms: _405  and  _408
REMARK  173  A    between atoms: _411  and  _413
REMARK  174  A    between atoms: _413  and  _414
REMARK  175  A    between atoms: _413  and  _416
REMARK  176  A    between atoms: _416  and  _417
REMARK  177  A    between atoms: _420  and  _422
REMARK  178  A    between atoms: _422  and  _423
REMARK  179  A    between atoms: _422  and  _425
REMARK  180  A    between atoms: _425  and  _426
REMARK  181  A    between atoms: _429  and  _431
REMARK  182  A    between atoms: _431  and  _432
REMARK  183  A    between atoms: _431  and  _434
REMARK  184  A    between atoms: _434  and  _435
REMARK  185  A    between atoms: _437  and  _439
REMARK  186  A    between atoms: _439  and  _440
REMARK  187  A    between atoms: _439  and  _442
REMARK  188  A    between atoms: _442  and  _443
REMARK  189  A    between atoms: _443  and  _444
REMARK  190  A    between atoms: _447  and  _449
REMARK  191  A    between atoms: _449  and  _450
REMARK  192  A    between atoms: _452  and  _454
REMARK  193  A    between atoms: _454  and  _455
REMARK  194  A    between atoms: _454  and  _457
REMARK  195  A    between atoms: _457  and  _458
REMARK  196  A    between atoms: _458  and  _459
REMARK  197  A    between atoms: _464  and  _466
REMARK  198  A    between atoms: _466  and  _467
REMARK  199  A    between atoms: _469  and  _471
REMARK  200  A    between atoms: _471  and  _472
REMARK  201  A    between atoms: _471  and  _474
REMARK  202  A    between atoms: _474  and  _475
REMARK  203  A    between atoms: _475  and  _476
REMARK  204  A    between atoms: _478  and  _480
REMARK  205  A    between atoms: _480  and  _481
REMARK  206  A    between atoms: _480  and  _483
REMARK  207  A    between atoms: _483  and  _484
REMARK  208  A    between atoms: _487  and  _489
REMARK  209  A    between atoms: _489  and  _490
REMARK  210  A    between atoms: _489  and  _492
REMARK  211  A    between atoms: _492  and  _493
REMARK  212  A    between atoms: _499  and  _501
REMARK  213  A    between atoms: _501  and  _502
REMARK  214  A    between atoms: _501  and  _504
REMARK  215  A    between atoms: _504  and  _505
REMARK  216  A    between atoms: _508  and  _510
REMARK  217  A    between atoms: _510  and  _511
REMARK  218  A    between atoms: _510  and  _513
REMARK  219  A    between atoms: _513  and  _514
REMARK  220  A    between atoms: _517  and  _519
REMARK  221  A    between atoms: _519  and  _520
REMARK  222  A    between atoms: _519  and  _522
REMARK  223  A    between atoms: _522  and  _523
REMARK  224  A    between atoms: _529  and  _531
REMARK  225  A    between atoms: _531  and  _532
REMARK  226  A    between atoms: _531  and  _534
REMARK  227  A    between atoms: _534  and  _535
REMARK  228  A    between atoms: _535  and  _536
REMARK  229  A    between atoms: _538  and  _540
REMARK  230  A    between atoms: _540  and  _541
REMARK  231  A    between atoms: _540  and  _543
REMARK  232  A    between atoms: _543  and  _544
REMARK  233  A    between atoms: _544  and  _545
REMARK  234  A    between atoms: _545  and  _546
REMARK  235  A    between atoms: _546  and  _547
REMARK  236  A    between atoms: _551  and  _553
REMARK  237  A    between atoms: _553  and  _554
REMARK  238  A    between atoms: _553  and  _556
REMARK  239  A    between atoms: _556  and  _557
REMARK  240  A    between atoms: _563  and  _565
REMARK  241  A    between atoms: _565  and  _566
REMARK  242  A    between atoms: _565  and  _568
REMARK  243  A    between atoms: _568  and  _569
REMARK  244  A    between atoms: _574  and  _576
REMARK  245  A    between atoms: _576  and  _577
REMARK  246  A    between atoms: _576  and  _579
REMARK  247  A    between atoms: _579  and  _580
REMARK  248  A    between atoms: _585  and  _586
REMARK                            x       y       z     vdW  Elec       q    Type
REMARK                         _______ _______ _______ _____ _____    ______ ____
ROOT
ATOM      1  O   HOH     1     -10.045  25.593  -7.799  0.00  0.00    +0.000 OA
ENDROOT
TORSDOF 0
REMARK  Name = ../refined-set-2016/4a4w/4a4w_pocket.pdb
REMARK  248 active torsions:
REMARK  status: ('A' for Active; 'I' for Inactive)
REMARK    1  A    between atoms: _1  and  _3
REMARK    2  A    between atoms: _3  and  _4
REMARK    3  A    between atoms: _3  and  _6
REMARK    4  A    between atoms: _6  and  _7
REMARK    5  A    between atoms: _14  and  _15
REMARK    6  A    between atoms: _20  and  _22
REMARK    7  A    between atoms: _22  and  _23
REMARK    8  A    between atoms: _22  and  _25
REMARK    9  A    between atoms: _25  and  _26
REMARK   10  A    between atoms: _29  and  _31
REMARK   11  A    between atoms: _31  and  _32
REMARK   12  A    between atoms: _31  and  _34
REMARK   13  A    between atoms: _34  and  _35
REMARK   14  A    between atoms: _38  and  _40
REMARK   15  A    between atoms: _40  and  _41
REMARK   16  A    between atoms: _40  and  _43
REMARK   17  A    between atoms: _43  and  _44
REMARK   18  A    between atoms: _46  and  _48
REMARK   19  A    between atoms: _48  and  _49
REMARK   20  A    between atoms: _48  and  _51
REMARK   21  A    between atoms: _51  and  _52
REMARK   22  A    between atoms: _55  and  _57
REMARK   23  A    between atoms: _57  and  _58
REMARK   24  A    between atoms: _57  and  _60
REMARK   25  A    between atoms: _60  and  _61
REMARK   26  A    between atoms: _61  and  _62
REMARK   27  A    between atoms: _64  and  _66
REMARK   28  A    between atoms: _66  and  _67
REMARK   29  A    between atoms: _69  and  _71
REMARK   30  A    between atoms: _71  and  _72
REMARK   31  A    between atoms: _71  and  _74
REMARK   32  A    between atoms: _74  and  _75
REMARK   33  A    between atoms: _75  and  _76
REMARK   34  A    between atoms: _79  and  _81
REMARK   35  A    between atoms: _81  and  _82
REMARK   36  A    between atoms: _81  and  _84
REMARK   37  A    between atoms: _84  and  _85
REMARK   38  A    between atoms: _88  and  _90
REMARK   39  A    between atoms: _90  and  _91
REMARK   40  A    between atoms: _90  and  _93
REMARK   41  A    between atoms: _93  and  _94
REMARK   42  A    between atoms: _94  and  _95
REMARK   43  A    between atoms: _98  and  _100
REMARK   44  A    between atoms: _100  and  _101
REMARK   45  A    between atoms: _100  and  _103
REMARK   46  A    between atoms: _106  and  _108
REMARK   47  A    between atoms: _108  and  _109
REMARK   48  A    between atoms: _112  and  _114
REMARK   49  A    between atoms: _114  and  _115
REMARK   50  A    between atoms: _114  and  _117
REMARK   51  A    between atoms: _117  and  _118
REMARK   52  A    between atoms: _121  and  _123
REMARK   53  A    between atoms: _123  and  _124
REMARK   54  A    between atoms: _123  and  _126
REMARK   55  A    between atoms: _126  and  _127
REMARK   56  A    between atoms: _127  and  _128
REMARK   57  A    between atoms: _128  and  _129
REMARK   58  A    between atoms: _138  and  _140
REMARK   59  A    between atoms: _140  and  _141
REMARK   60  A    between atoms: _140  and  _143
REMARK   61  A    between atoms: _143  and  _144
REMARK   62  A    between atoms: _147  and  _149
REMARK   63  A    between atoms: _149  and  _150
REMARK   64  A    between atoms: _149  and  _152
REMARK   65  A    between atoms: _152  and  _153
REMARK   66  A    between atoms: _159  and  _161
REMARK   67  A    between atoms: _161  and  _162
REMARK   68  A    between atoms: _161  and  _164
REMARK   69  A    between atoms: _164  and  _165
REMARK   70  A    between atoms: _165  and  _166
REMARK   71  A    between atoms: _171  and  _173
REMARK   72  A    between atoms: _173  and  _174
REMARK   73  A    between atoms: _176  and  _178
REMARK   74  A    between atoms: _178  and  _179
REMARK   75  A    between atoms: _178  and  _181
REMARK   76  A    between atoms: _183  and  _185
REMARK   77  A    between atoms: _185  and  _186
REMARK   78  A    between atoms: _185  and  _188
REMARK   79  A    between atoms: _188  and  _189
REMARK   80  A    between atoms: _189  and  _190
REMARK   81  A    between atoms: _195  and  _197
REMARK   82  A    between atoms: _197  and  _198
REMARK   83  A    between atoms: _197  and  _200
REMARK   84  A    between atoms: _200  and  _201
REMARK   85  A    between atoms: _207  and  _209
REMARK   86  A    between atoms: _209  and  _210
REMARK   87  A    between atoms: _209  and  _212
REMARK   88  A    between atoms: _212  and  _213
REMARK   89  A    between atoms: _213  and  _214
REMARK   90  A    between atoms: _214  and  _215
REMARK   91  A    between atoms: _224  and  _226
REMARK   92  A    between atoms: _226  and  _227
REMARK   93  A    between atoms: _226  and  _229
REMARK   94  A    between atoms: _229  and  _230
REMARK   95  A    between atoms: _232  and  _234
REMARK   96  A    between atoms: _234  and  _235
REMARK   97  A    between atoms: _234  and  _237
REMARK   98  A    between atoms: _240  and  _242
REMARK   99  A    between atoms: _242  and  _243
REMARK  100  A    between atoms: _242  and  _245
REMARK  101  A    between atoms: _245  and  _246
REMARK  102  A    between atoms: _246  and  _247
REMARK  103  A    between atoms: _250  and  _252
REMARK  104  A    between atoms: _252  and  _253
REMARK  105  A    between atoms: _256  and  _258
REMARK  106  A    between atoms: _258  and  _259
REMARK  107  A    between atoms: _258  and  _261
REMARK  108  A    between atoms: _264  and  _266
REMARK  109  A    between atoms: _266  and  _267
REMARK  110  A    between atoms: _266  and  _269
REMARK  111  A    between atoms: _269  and  _270
REMARK  112  A    between atoms: _270  and  _271
REMARK  113  A    between atoms: _274  and  _276
REMARK  114  A    between atoms: _276  and  _277
REMARK  115  A    between atoms: _276  and  _279
REMARK  116  A    between atoms: _279  and  _280
REMARK  117  A    between atoms: _283  and  _285
REMARK  118  A    between atoms: _285  and  _286
REMARK  119  A    between atoms: _285  and  _288
REMARK  120  A    between atoms: _291  and  _293
REMARK  121  A    between atoms: _293  and  _294
REMARK  122  A    between atoms: _293  and  _296
REMARK  123  A    between atoms: _296  and  _297
REMARK  124  A    between atoms: _302  and  _304
REMARK  125  A    between atoms: _304  and  _305
REMARK  126  A    between atoms: _304  and  _307
REMARK  127  A    between atoms: _307  and  _308
REMARK  128  A    between atoms: _308  and  _309
REMARK  129  A    between atoms: _312  and  _314
REMARK  130  A    between atoms: _314  and  _315
REMARK  131  A    between atoms: _314  and  _317
REMARK  132  A    between atoms: _317  and  _318
REMARK  133  A    between atoms: _321  and  _323
REMARK  134  A    between atoms: _323  and  _324
REMARK  135  A    between atoms: _323  and  _326
REMARK  136  A    between atoms: _326  and  _327
REMARK  137  A    between atoms: _330  and  _332
REMARK  138  A    between atoms: _332  and  _333
REMARK  139  A    between atoms: _332  and  _335
REMARK  140  A    between atoms: _335  and  _336
REMARK  141  A    between atoms: _341  and  _342
REMARK  142  A    between atoms: _344  and  _346
REMARK  143  A    between atoms: _346  and  _347
REMARK  144  A    between atoms: _346  and  _349
REMARK  145  A    between atoms: _349  and  _350
REMARK  146  A    between atoms: _353  and  _355
REMARK  147  A    between atoms: _355  and  _356
REMARK  148  A    between atoms: _355  and  _358
REMARK  149  A    between atoms: _358  and  _359
REMARK  150  A    between atoms: _359  and  _360
REMARK  151  A    between atoms: _362  and  _364
REMARK  152  A    between atoms: _364  and  _365
REMARK  153  A    between atoms: _364  and  _367
REMARK  154  A    between atoms: _367  and  _368
REMARK  155  A    between atoms: _371  and  _373
REMARK  156  A    between atoms: _373  and  _374
REMARK  157  A    between atoms: _377  and  _379
REMARK  158  A    between atoms: _379  and  _380
REMARK  159  A    between atoms: _379  and  _382
REMARK  160  A    between atoms: _382  and  _383
REMARK  161  A    between atoms: _385  and  _387
REMARK  162  A    between atoms: _387  and  _388
REMARK  163  A    between atoms: _387  and  _390
REMARK  164  A    between atoms: _390  and  _391
REMARK  165  A    between atoms: _394  and  _396
REMARK  166  A    between atoms: _396  and  _397
REMARK  167  A    between atoms: _396  and  _399
REMARK  168  A    between atoms: _399  and  _400
REMARK  169  A    between atoms: _400  and  _401
REMARK  170  A    between atoms: _403  and  _405
REMARK  171  A    between atoms: _405  and  _406
REMARK  172  A    between atoms: _405  and  _408
REMARK  173  A    between atoms: _411  and  _413
REMARK  174  A    between atoms: _413  and  _414
REMARK  175  A    between atoms: _413  and  _416
REMARK  176  A    between atoms: _416  and  _417
REMARK  177  A    between atoms: _420  and  _422
REMARK  178  A    between atoms: _422  and  _423
REMARK  179  A    between atoms: _422  and  _425
REMARK  180  A    between atoms: _425  and  _426
REMARK  181  A    between atoms: _429  and  _431
REMARK  182  A    between atoms: _431  and  _432
REMARK  183  A    between atoms: _431  and  _434
REMARK  184  A    between atoms: _434  and  _435
REMARK  185  A    between atoms: _437  and  _439
REMARK  186  A    between atoms: _439  and  _440
REMARK  187  A    between atoms: _439  and  _442
REMARK  188  A    between atoms: _442  and  _443
REMARK  189  A    between atoms: _443  and  _444
REMARK  190  A    between atoms: _447  and  _449
REMARK  191  A    between atoms: _449  and  _450
REMARK  192  A    between atoms: _452  and  _454
REMARK  193  A    between atoms: _454  and  _455
REMARK  194  A    between atoms: _454  and  _457
REMARK  195  A    between atoms: _457  and  _458
REMARK  196  A    between atoms: _458  and  _459
REMARK  197  A    between atoms: _464  and  _466
REMARK  198  A    between atoms: _466  and  _467
REMARK  199  A    between atoms: _469  and  _471
REMARK  200  A    between atoms: _471  and  _472
REMARK  201  A    between atoms: _471  and  _474
REMARK  202  A    between atoms: _474  and  _475
REMARK  203  A    between atoms: _475  and  _476
REMARK  204  A    between atoms: _478  and  _480
REMARK  205  A    between atoms: _480  and  _481
REMARK  206  A    between atoms: _480  and  _483
REMARK  207  A    between atoms: _483  and  _484
REMARK  208  A    between atoms: _487  and  _489
REMARK  209  A    between atoms: _489  and  _490
REMARK  210  A    between atoms: _489  and  _492
REMARK  211  A    between atoms: _492  and  _493
REMARK  212  A    between atoms: _499  and  _501
REMARK  213  A    between atoms: _501  and  _502
REMARK  214  A    between atoms: _501  and  _504
REMARK  215  A    between atoms: _504  and  _505
REMARK  216  A    between atoms: _508  and  _510
REMARK  217  A    between atoms: _510  and  _511
REMARK  218  A    between atoms: _510  and  _513
REMARK  219  A    between atoms: _513  and  _514
REMARK  220  A    between atoms: _517  and  _519
REMARK  221  A    between atoms: _519  and  _520
REMARK  222  A    between atoms: _519  and  _522
REMARK  223  A    between atoms: _522  and  _523
REMARK  224  A    between atoms: _529  and  _531
REMARK  225  A    between atoms: _531  and  _532
REMARK  226  A    between atoms: _531  and  _534
REMARK  227  A    between atoms: _534  and  _535
REMARK  228  A    between atoms: _535  and  _536
REMARK  229  A    between atoms: _538  and  _540
REMARK  230  A    between atoms: _540  and  _541
REMARK  231  A    between atoms: _540  and  _543
REMARK  232  A    between atoms: _543  and  _544
REMARK  233  A    between atoms: _544  and  _545
REMARK  234  A    between atoms: _545  and  _546
REMARK  235  A    between atoms: _546  and  _547
REMARK  236  A    between atoms: _551  and  _553
REMARK  237  A    between atoms: _553  and  _554
REMARK  238  A    between atoms: _553  and  _556
REMARK  239  A    between atoms: _556  and  _557
REMARK  240  A    between atoms: _563  and  _565
REMARK  241  A    between atoms: _565  and  _566
REMARK  242  A    between atoms: _565  and  _568
REMARK  243  A    between atoms: _568  and  _569
REMARK  244  A    between atoms: _574  and  _576
REMARK  245  A    between atoms: _576  and  _577
REMARK  246  A    between atoms: _576  and  _579
REMARK  247  A    between atoms: _579  and  _580
REMARK  248  A    between atoms: _585  and  _586
REMARK                            x       y       z     vdW  Elec       q    Type
REMARK                         _______ _______ _______ _____ _____    ______ ____
ROOT
ATOM      1  O   HOH     1     -25.901  18.500  -9.658  0.00  0.00    +0.000 OA
ENDROOT
TORSDOF 0
REMARK  Name = ../refined-set-2016/4a4w/4a4w_pocket.pdb
REMARK  248 active torsions:
REMARK  status: ('A' for Active; 'I' for Inactive)
REMARK    1  A    between atoms: _1  and  _3
REMARK    2  A    between atoms: _3  and  _4
REMARK    3  A    between atoms: _3  and  _6
REMARK    4  A    between atoms: _6  and  _7
REMARK    5  A    between atoms: _14  and  _15
REMARK    6  A    between atoms: _20  and  _22
REMARK    7  A    between atoms: _22  and  _23
REMARK    8  A    between atoms: _22  and  _25
REMARK    9  A    between atoms: _25  and  _26
REMARK   10  A    between atoms: _29  and  _31
REMARK   11  A    between atoms: _31  and  _32
REMARK   12  A    between atoms: _31  and  _34
REMARK   13  A    between atoms: _34  and  _35
REMARK   14  A    between atoms: _38  and  _40
REMARK   15  A    between atoms: _40  and  _41
REMARK   16  A    between atoms: _40  and  _43
REMARK   17  A    between atoms: _43  and  _44
REMARK   18  A    between atoms: _46  and  _48
REMARK   19  A    between atoms: _48  and  _49
REMARK   20  A    between atoms: _48  and  _51
REMARK   21  A    between atoms: _51  and  _52
REMARK   22  A    between atoms: _55  and  _57
REMARK   23  A    between atoms: _57  and  _58
REMARK   24  A    between atoms: _57  and  _60
REMARK   25  A    between atoms: _60  and  _61
REMARK   26  A    between atoms: _61  and  _62
REMARK   27  A    between atoms: _64  and  _66
REMARK   28  A    between atoms: _66  and  _67
REMARK   29  A    between atoms: _69  and  _71
REMARK   30  A    between atoms: _71  and  _72
REMARK   31  A    between atoms: _71  and  _74
REMARK   32  A    between atoms: _74  and  _75
REMARK   33  A    between atoms: _75  and  _76
REMARK   34  A    between atoms: _79  and  _81
REMARK   35  A    between atoms: _81  and  _82
REMARK   36  A    between atoms: _81  and  _84
REMARK   37  A    between atoms: _84  and  _85
REMARK   38  A    between atoms: _88  and  _90
REMARK   39  A    between atoms: _90  and  _91
REMARK   40  A    between atoms: _90  and  _93
REMARK   41  A    between atoms: _93  and  _94
REMARK   42  A    between atoms: _94  and  _95
REMARK   43  A    between atoms: _98  and  _100
REMARK   44  A    between atoms: _100  and  _101
REMARK   45  A    between atoms: _100  and  _103
REMARK   46  A    between atoms: _106  and  _108
REMARK   47  A    between atoms: _108  and  _109
REMARK   48  A    between atoms: _112  and  _114
REMARK   49  A    between atoms: _114  and  _115
REMARK   50  A    between atoms: _114  and  _117
REMARK   51  A    between atoms: _117  and  _118
REMARK   52  A    between atoms: _121  and  _123
REMARK   53  A    between atoms: _123  and  _124
REMARK   54  A    between atoms: _123  and  _126
REMARK   55  A    between atoms: _126  and  _127
REMARK   56  A    between atoms: _127  and  _128
REMARK   57  A    between atoms: _128  and  _129
REMARK   58  A    between atoms: _138  and  _140
REMARK   59  A    between atoms: _140  and  _141
REMARK   60  A    between atoms: _140  and  _143
REMARK   61  A    between atoms: _143  and  _144
REMARK   62  A    between atoms: _147  and  _149
REMARK   63  A    between atoms: _149  and  _150
REMARK   64  A    between atoms: _149  and  _152
REMARK   65  A    between atoms: _152  and  _153
REMARK   66  A    between atoms: _159  and  _161
REMARK   67  A    between atoms: _161  and  _162
REMARK   68  A    between atoms: _161  and  _164
REMARK   69  A    between atoms: _164  and  _165
REMARK   70  A    between atoms: _165  and  _166
REMARK   71  A    between atoms: _171  and  _173
REMARK   72  A    between atoms: _173  and  _174
REMARK   73  A    between atoms: _176  and  _178
REMARK   74  A    between atoms: _178  and  _179
REMARK   75  A    between atoms: _178  and  _181
REMARK   76  A    between atoms: _183  and  _185
REMARK   77  A    between atoms: _185  and  _186
REMARK   78  A    between atoms: _185  and  _188
REMARK   79  A    between atoms: _188  and  _189
REMARK   80  A    between atoms: _189  and  _190
REMARK   81  A    between atoms: _195  and  _197
REMARK   82  A    between atoms: _197  and  _198
REMARK   83  A    between atoms: _197  and  _200
REMARK   84  A    between atoms: _200  and  _201
REMARK   85  A    between atoms: _207  and  _209
REMARK   86  A    between atoms: _209  and  _210
REMARK   87  A    between atoms: _209  and  _212
REMARK   88  A    between atoms: _212  and  _213
REMARK   89  A    between atoms: _213  and  _214
REMARK   90  A    between atoms: _214  and  _215
REMARK   91  A    between atoms: _224  and  _226
REMARK   92  A    between atoms: _226  and  _227
REMARK   93  A    between atoms: _226  and  _229
REMARK   94  A    between atoms: _229  and  _230
REMARK   95  A    between atoms: _232  and  _234
REMARK   96  A    between atoms: _234  and  _235
REMARK   97  A    between atoms: _234  and  _237
REMARK   98  A    between atoms: _240  and  _242
REMARK   99  A    between atoms: _242  and  _243
REMARK  100  A    between atoms: _242  and  _245
REMARK  101  A    between atoms: _245  and  _246
REMARK  102  A    between atoms: _246  and  _247
REMARK  103  A    between atoms: _250  and  _252
REMARK  104  A    between atoms: _252  and  _253
REMARK  105  A    between atoms: _256  and  _258
REMARK  106  A    between atoms: _258  and  _259
REMARK  107  A    between atoms: _258  and  _261
REMARK  108  A    between atoms: _264  and  _266
REMARK  109  A    between atoms: _266  and  _267
REMARK  110  A    between atoms: _266  and  _269
REMARK  111  A    between atoms: _269  and  _270
REMARK  112  A    between atoms: _270  and  _271
REMARK  113  A    between atoms: _274  and  _276
REMARK  114  A    between atoms: _276  and  _277
REMARK  115  A    between atoms: _276  and  _279
REMARK  116  A    between atoms: _279  and  _280
REMARK  117  A    between atoms: _283  and  _285
REMARK  118  A    between atoms: _285  and  _286
REMARK  119  A    between atoms: _285  and  _288
REMARK  120  A    between atoms: _291  and  _293
REMARK  121  A    between atoms: _293  and  _294
REMARK  122  A    between atoms: _293  and  _296
REMARK  123  A    between atoms: _296  and  _297
REMARK  124  A    between atoms: _302  and  _304
REMARK  125  A    between atoms: _304  and  _305
REMARK  126  A    between atoms: _304  and  _307
REMARK  127  A    between atoms: _307  and  _308
REMARK  128  A    between atoms: _308  and  _309
REMARK  129  A    between atoms: _312  and  _314
REMARK  130  A    between atoms: _314  and  _315
REMARK  131  A    between atoms: _314  and  _317
REMARK  132  A    between atoms: _317  and  _318
REMARK  133  A    between atoms: _321  and  _323
REMARK  134  A    between atoms: _323  and  _324
REMARK  135  A    between atoms: _323  and  _326
REMARK  136  A    between atoms: _326  and  _327
REMARK  137  A    between atoms: _330  and  _332
REMARK  138  A    between atoms: _332  and  _333
REMARK  139  A    between atoms: _332  and  _335
REMARK  140  A    between atoms: _335  and  _336
REMARK  141  A    between atoms: _341  and  _342
REMARK  142  A    between atoms: _344  and  _346
REMARK  143  A    between atoms: _346  and  _347
REMARK  144  A    between atoms: _346  and  _349
REMARK  145  A    between atoms: _349  and  _350
REMARK  146  A    between atoms: _353  and  _355
REMARK  147  A    between atoms: _355  and  _356
REMARK  148  A    between atoms: _355  and  _358
REMARK  149  A    between atoms: _358  and  _359
REMARK  150  A    between atoms: _359  and  _360
REMARK  151  A    between atoms: _362  and  _364
REMARK  152  A    between atoms: _364  and  _365
REMARK  153  A    between atoms: _364  and  _367
REMARK  154  A    between atoms: _367  and  _368
REMARK  155  A    between atoms: _371  and  _373
REMARK  156  A    between atoms: _373  and  _374
REMARK  157  A    between atoms: _377  and  _379
REMARK  158  A    between atoms: _379  and  _380
REMARK  159  A    between atoms: _379  and  _382
REMARK  160  A    between atoms: _382  and  _383
REMARK  161  A    between atoms: _385  and  _387
REMARK  162  A    between atoms: _387  and  _388
REMARK  163  A    between atoms: _387  and  _390
REMARK  164  A    between atoms: _390  and  _391
REMARK  165  A    between atoms: _394  and  _396
REMARK  166  A    between atoms: _396  and  _397
REMARK  167  A    between atoms: _396  and  _399
REMARK  168  A    between atoms: _399  and  _400
REMARK  169  A    between atoms: _400  and  _401
REMARK  170  A    between atoms: _403  and  _405
REMARK  171  A    between atoms: _405  and  _406
REMARK  172  A    between atoms: _405  and  _408
REMARK  173  A    between atoms: _411  and  _413
REMARK  174  A    between atoms: _413  and  _414
REMARK  175  A    between atoms: _413  and  _416
REMARK  176  A    between atoms: _416  and  _417
REMARK  177  A    between atoms: _420  and  _422
REMARK  178  A    between atoms: _422  and  _423
REMARK  179  A    between atoms: _422  and  _425
REMARK  180  A    between atoms: _425  and  _426
REMARK  181  A    between atoms: _429  and  _431
REMARK  182  A    between atoms: _431  and  _432
REMARK  183  A    between atoms: _431  and  _434
REMARK  184  A    between atoms: _434  and  _435
REMARK  185  A    between atoms: _437  and  _439
REMARK  186  A    between atoms: _439  and  _440
REMARK  187  A    between atoms: _439  and  _442
REMARK  188  A    between atoms: _442  and  _443
REMARK  189  A    between atoms: _443  and  _444
REMARK  190  A    between atoms: _447  and  _449
REMARK  191  A    between atoms: _449  and  _450
REMARK  192  A    between atoms: _452  and  _454
REMARK  193  A    between atoms: _454  and  _455
REMARK  194  A    between atoms: _454  and  _457
REMARK  195  A    between atoms: _457  and  _458
REMARK  196  A    between atoms: _458  and  _459
REMARK  197  A    between atoms: _464  and  _466
REMARK  198  A    between atoms: _466  and  _467
REMARK  199  A    between atoms: _469  and  _471
REMARK  200  A    between atoms: _471  and  _472
REMARK  201  A    between atoms: _471  and  _474
REMARK  202  A    between atoms: _474  and  _475
REMARK  203  A    between atoms: _475  and  _476
REMARK  204  A    between atoms: _478  and  _480
REMARK  205  A    between atoms: _480  and  _481
REMARK  206  A    between atoms: _480  and  _483
REMARK  207  A    between atoms: _483  and  _484
REMARK  208  A    between atoms: _487  and  _489
REMARK  209  A    between atoms: _489  and  _490
REMARK  210  A    between atoms: _489  and  _492
REMARK  211  A    between atoms: _492  and  _493
REMARK  212  A    between atoms: _499  and  _501
REMARK  213  A    between atoms: _501  and  _502
REMARK  214  A    between atoms: _501  and  _504
REMARK  215  A    between atoms: _504  and  _505
REMARK  216  A    between atoms: _508  and  _510
REMARK  217  A    between atoms: _510  and  _511
REMARK  218  A    between atoms: _510  and  _513
REMARK  219  A    between atoms: _513  and  _514
REMARK  220  A    between atoms: _517  and  _519
REMARK  221  A    between atoms: _519  and  _520
REMARK  222  A    between atoms: _519  and  _522
REMARK  223  A    between atoms: _522  and  _523
REMARK  224  A    between atoms: _529  and  _531
REMARK  225  A    between atoms: _531  and  _532
REMARK  226  A    between atoms: _531  and  _534
REMARK  227  A    between atoms: _534  and  _535
REMARK  228  A    between atoms: _535  and  _536
REMARK  229  A    between atoms: _538  and  _540
REMARK  230  A    between atoms: _540  and  _541
REMARK  231  A    between atoms: _540  and  _543
REMARK  232  A    between atoms: _543  and  _544
REMARK  233  A    between atoms: _544  and  _545
REMARK  234  A    between atoms: _545  and  _546
REMARK  235  A    between atoms: _546  and  _547
REMARK  236  A    between atoms: _551  and  _553
REMARK  237  A    between atoms: _553  and  _554
REMARK  238  A    between atoms: _553  and  _556
REMARK  239  A    between atoms: _556  and  _557
REMARK  240  A    between atoms: _563  and  _565
REMARK  241  A    between atoms: _565  and  _566
REMARK  242  A    between atoms: _565  and  _568
REMARK  243  A    between atoms: _568  and  _569
REMARK  244  A    between atoms: _574  and  _576
REMARK  245  A    between atoms: _576  and  _577
REMARK  246  A    between atoms: _576  and  _579
REMARK  247  A    between atoms: _579  and  _580
REMARK  248  A    between atoms: _585  and  _586
REMARK                            x       y       z     vdW  Elec       q    Type
REMARK                         _______ _______ _______ _____ _____    ______ ____
ROOT
ATOM      1  O   HOH     1     -26.601  16.013  -9.659  0.00  0.00    +0.000 OA
ENDROOT
TORSDOF 0
