REMARK  Name = ../refined-set-2016/4c1t/4c1t_pocket.pdb
REMARK  264 active torsions:
REMARK  status: ('A' for Active; 'I' for Inactive)
REMARK    1  A    between atoms: _1  and  _3
REMARK    2  A    between atoms: _3  and  _4
REMARK    3  A    between atoms: _3  and  _6
REMARK    4  A    between atoms: _6  and  _7
REMARK    5  A    between atoms: _12  and  _14
REMARK    6  A    between atoms: _14  and  _15
REMARK    7  A    between atoms: _14  and  _17
REMARK    8  A    between atoms: _17  and  _18
REMARK    9  A    between atoms: _23  and  _25
REMARK   10  A    between atoms: _25  and  _26
REMARK   11  A    between atoms: _29  and  _31
REMARK   12  A    between atoms: _31  and  _32
REMARK   13  A    between atoms: _31  and  _34
REMARK   14  A    between atoms: _34  and  _35
REMARK   15  A    between atoms: _37  and  _39
REMARK   16  A    between atoms: _39  and  _40
REMARK   17  A    between atoms: _43  and  _45
REMARK   18  A    between atoms: _45  and  _46
REMARK   19  A    between atoms: _48  and  _50
REMARK   20  A    between atoms: _50  and  _51
REMARK   21  A    between atoms: _50  and  _53
REMARK   22  A    between atoms: _53  and  _54
REMARK   23  A    between atoms: _54  and  _55
REMARK   24  A    between atoms: _58  and  _60
REMARK   25  A    between atoms: _60  and  _61
REMARK   26  A    between atoms: _63  and  _65
REMARK   27  A    between atoms: _65  and  _66
REMARK   28  A    between atoms: _65  and  _68
REMARK   29  A    between atoms: _68  and  _69
REMARK   30  A    between atoms: _69  and  _70
REMARK   31  A    between atoms: _70  and  _71
REMARK   32  A    between atoms: _80  and  _82
REMARK   33  A    between atoms: _82  and  _83
REMARK   34  A    between atoms: _82  and  _85
REMARK   35  A    between atoms: _85  and  _86
REMARK   36  A    between atoms: _86  and  _87
REMARK   37  A    between atoms: _92  and  _94
REMARK   38  A    between atoms: _94  and  _95
REMARK   39  A    between atoms: _94  and  _97
REMARK   40  A    between atoms: _97  and  _98
REMARK   41  A    between atoms: _103  and  _104
REMARK   42  A    between atoms: _106  and  _108
REMARK   43  A    between atoms: _108  and  _109
REMARK   44  A    between atoms: _108  and  _111
REMARK   45  A    between atoms: _111  and  _112
REMARK   46  A    between atoms: _122  and  _124
REMARK   47  A    between atoms: _124  and  _125
REMARK   48  A    between atoms: _124  and  _127
REMARK   49  A    between atoms: _127  and  _128
REMARK   50  A    between atoms: _131  and  _133
REMARK   51  A    between atoms: _133  and  _134
REMARK   52  A    between atoms: _133  and  _136
REMARK   53  A    between atoms: _136  and  _137
REMARK   54  A    between atoms: _137  and  _138
REMARK   55  A    between atoms: _143  and  _145
REMARK   56  A    between atoms: _145  and  _146
REMARK   57  A    between atoms: _145  and  _148
REMARK   58  A    between atoms: _148  and  _149
REMARK   59  A    between atoms: _154  and  _156
REMARK   60  A    between atoms: _156  and  _157
REMARK   61  A    between atoms: _156  and  _159
REMARK   62  A    between atoms: _159  and  _160
REMARK   63  A    between atoms: _160  and  _161
REMARK   64  A    between atoms: _164  and  _166
REMARK   65  A    between atoms: _166  and  _167
REMARK   66  A    between atoms: _166  and  _169
REMARK   67  A    between atoms: _169  and  _170
REMARK   68  A    between atoms: _173  and  _175
REMARK   69  A    between atoms: _175  and  _176
REMARK   70  A    between atoms: _175  and  _178
REMARK   71  A    between atoms: _178  and  _179
REMARK   72  A    between atoms: _185  and  _187
REMARK   73  A    between atoms: _187  and  _188
REMARK   74  A    between atoms: _191  and  _193
REMARK   75  A    between atoms: _193  and  _194
REMARK   76  A    between atoms: _196  and  _198
REMARK   77  A    between atoms: _198  and  _199
REMARK   78  A    between atoms: _198  and  _201
REMARK   79  A    between atoms: _201  and  _202
REMARK   80  A    between atoms: _202  and  _203
REMARK   81  A    between atoms: _203  and  _204
REMARK   82  A    between atoms: _204  and  _205
REMARK   83  A    between atoms: _209  and  _211
REMARK   84  A    between atoms: _211  and  _212
REMARK   85  A    between atoms: _211  and  _214
REMARK   86  A    between atoms: _214  and  _215
REMARK   87  A    between atoms: _218  and  _220
REMARK   88  A    between atoms: _220  and  _221
REMARK   89  A    between atoms: _220  and  _223
REMARK   90  A    between atoms: _223  and  _224
REMARK   91  A    between atoms: _224  and  _225
REMARK   92  A    between atoms: _230  and  _232
REMARK   93  A    between atoms: _232  and  _233
REMARK   94  A    between atoms: _232  and  _235
REMARK   95  A    between atoms: _235  and  _236
REMARK   96  A    between atoms: _236  and  _237
REMARK   97  A    between atoms: _239  and  _241
REMARK   98  A    between atoms: _241  and  _242
REMARK   99  A    between atoms: _241  and  _244
REMARK  100  A    between atoms: _244  and  _245
REMARK  101  A    between atoms: _247  and  _249
REMARK  102  A    between atoms: _249  and  _250
REMARK  103  A    between atoms: _249  and  _252
REMARK  104  A    between atoms: _252  and  _253
REMARK  105  A    between atoms: _256  and  _258
REMARK  106  A    between atoms: _258  and  _259
REMARK  107  A    between atoms: _261  and  _263
REMARK  108  A    between atoms: _263  and  _264
REMARK  109  A    between atoms: _263  and  _266
REMARK  110  A    between atoms: _266  and  _267
REMARK  111  A    between atoms: _267  and  _268
REMARK  112  A    between atoms: _268  and  _269
REMARK  113  A    between atoms: _269  and  _270
REMARK  114  A    between atoms: _274  and  _276
REMARK  115  A    between atoms: _276  and  _277
REMARK  116  A    between atoms: _276  and  _279
REMARK  117  A    between atoms: _279  and  _280
REMARK  118  A    between atoms: _282  and  _284
REMARK  119  A    between atoms: _284  and  _285
REMARK  120  A    between atoms: _284  and  _287
REMARK  121  A    between atoms: _287  and  _288
REMARK  122  A    between atoms: _288  and  _289
REMARK  123  A    between atoms: _292  and  _294
REMARK  124  A    between atoms: _294  and  _295
REMARK  125  A    between atoms: _294  and  _297
REMARK  126  A    between atoms: _297  and  _298
REMARK  127  A    between atoms: _301  and  _303
REMARK  128  A    between atoms: _303  and  _304
REMARK  129  A    between atoms: _307  and  _309
REMARK  130  A    between atoms: _309  and  _310
REMARK  131  A    between atoms: _309  and  _312
REMARK  132  A    between atoms: _312  and  _313
REMARK  133  A    between atoms: _324  and  _325
REMARK  134  A    between atoms: _330  and  _332
REMARK  135  A    between atoms: _332  and  _333
REMARK  136  A    between atoms: _336  and  _338
REMARK  137  A    between atoms: _338  and  _339
REMARK  138  A    between atoms: _338  and  _341
REMARK  139  A    between atoms: _341  and  _342
REMARK  140  A    between atoms: _347  and  _349
REMARK  141  A    between atoms: _349  and  _350
REMARK  142  A    between atoms: _349  and  _352
REMARK  143  A    between atoms: _352  and  _353
REMARK  144  A    between atoms: _358  and  _359
REMARK  145  A    between atoms: _361  and  _363
REMARK  146  A    between atoms: _363  and  _364
REMARK  147  A    between atoms: _367  and  _369
REMARK  148  A    between atoms: _369  and  _370
REMARK  149  A    between atoms: _369  and  _372
REMARK  150  A    between atoms: _372  and  _373
REMARK  151  A    between atoms: _373  and  _374
REMARK  152  A    between atoms: _379  and  _381
REMARK  153  A    between atoms: _381  and  _382
REMARK  154  A    between atoms: _381  and  _384
REMARK  155  A    between atoms: _384  and  _385
REMARK  156  A    between atoms: _385  and  _386
REMARK  157  A    between atoms: _391  and  _393
REMARK  158  A    between atoms: _393  and  _394
REMARK  159  A    between atoms: _393  and  _396
REMARK  160  A    between atoms: _396  and  _397
REMARK  161  A    between atoms: _397  and  _398
REMARK  162  A    between atoms: _400  and  _402
REMARK  163  A    between atoms: _402  and  _403
REMARK  164  A    between atoms: _405  and  _407
REMARK  165  A    between atoms: _407  and  _408
REMARK  166  A    between atoms: _411  and  _413
REMARK  167  A    between atoms: _413  and  _414
REMARK  168  A    between atoms: _413  and  _416
REMARK  169  A    between atoms: _416  and  _417
REMARK  170  A    between atoms: _427  and  _429
REMARK  171  A    between atoms: _429  and  _430
REMARK  172  A    between atoms: _429  and  _432
REMARK  173  A    between atoms: _432  and  _433
REMARK  174  A    between atoms: _433  and  _434
REMARK  175  A    between atoms: _437  and  _439
REMARK  176  A    between atoms: _439  and  _440
REMARK  177  A    between atoms: _442  and  _444
REMARK  178  A    between atoms: _444  and  _445
REMARK  179  A    between atoms: _444  and  _447
REMARK  180  A    between atoms: _450  and  _452
REMARK  181  A    between atoms: _452  and  _453
REMARK  182  A    between atoms: _452  and  _455
REMARK  183  A    between atoms: _455  and  _456
REMARK  184  A    between atoms: _459  and  _461
REMARK  185  A    between atoms: _461  and  _462
REMARK  186  A    between atoms: _461  and  _464
REMARK  187  A    between atoms: _464  and  _465
REMARK  188  A    between atoms: _468  and  _470
REMARK  189  A    between atoms: _470  and  _471
REMARK  190  A    between atoms: _470  and  _473
REMARK  191  A    between atoms: _473  and  _474
REMARK  192  A    between atoms: _474  and  _475
REMARK  193  A    between atoms: _477  and  _479
REMARK  194  A    between atoms: _479  and  _480
REMARK  195  A    between atoms: _482  and  _484
REMARK  196  A    between atoms: _484  and  _485
REMARK  197  A    between atoms: _487  and  _489
REMARK  198  A    between atoms: _489  and  _490
REMARK  199  A    between atoms: _489  and  _492
REMARK  200  A    between atoms: _495  and  _497
REMARK  201  A    between atoms: _497  and  _498
REMARK  202  A    between atoms: _497  and  _500
REMARK  203  A    between atoms: _500  and  _501
REMARK  204  A    between atoms: _504  and  _506
REMARK  205  A    between atoms: _506  and  _507
REMARK  206  A    between atoms: _506  and  _509
REMARK  207  A    between atoms: _509  and  _510
REMARK  208  A    between atoms: _515  and  _516
REMARK  209  A    between atoms: _518  and  _520
REMARK  210  A    between atoms: _520  and  _521
REMARK  211  A    between atoms: _520  and  _523
REMARK  212  A    between atoms: _523  and  _524
REMARK  213  A    between atoms: _529  and  _530
REMARK  214  A    between atoms: _532  and  _534
REMARK  215  A    between atoms: _534  and  _535
REMARK  216  A    between atoms: _538  and  _540
REMARK  217  A    between atoms: _540  and  _541
REMARK  218  A    between atoms: _540  and  _543
REMARK  219  A    between atoms: _543  and  _544
REMARK  220  A    between atoms: _550  and  _552
REMARK  221  A    between atoms: _552  and  _553
REMARK  222  A    between atoms: _552  and  _555
REMARK  223  A    between atoms: _555  and  _556
REMARK  224  A    between atoms: _558  and  _560
REMARK  225  A    between atoms: _560  and  _561
REMARK  226  A    between atoms: _560  and  _563
REMARK  227  A    between atoms: _563  and  _564
REMARK  228  A    between atoms: _567  and  _569
REMARK  229  A    between atoms: _569  and  _570
REMARK  230  A    between atoms: _569  and  _572
REMARK  231  A    between atoms: _572  and  _573
REMARK  232  A    between atoms: _576  and  _578
REMARK  233  A    between atoms: _578  and  _579
REMARK  234  A    between atoms: _578  and  _581
REMARK  235  A    between atoms: _581  and  _582
REMARK  236  A    between atoms: _592  and  _594
REMARK  237  A    between atoms: _594  and  _595
REMARK  238  A    between atoms: _594  and  _597
REMARK  239  A    between atoms: _597  and  _598
REMARK  240  A    between atoms: _598  and  _599
REMARK  241  A    between atoms: _601  and  _603
REMARK  242  A    between atoms: _603  and  _604
REMARK  243  A    between atoms: _603  and  _606
REMARK  244  A    between atoms: _606  and  _607
REMARK  245  A    between atoms: _610  and  _612
REMARK  246  A    between atoms: _612  and  _613
REMARK  247  A    between atoms: _612  and  _615
REMARK  248  A    between atoms: _615  and  _616
REMARK  249  A    between atoms: _619  and  _621
REMARK  250  A    between atoms: _621  and  _622
REMARK  251  A    between atoms: _625  and  _627
REMARK  252  A    between atoms: _627  and  _628
REMARK  253  A    between atoms: _627  and  _630
REMARK  254  A    between atoms: _630  and  _631
REMARK  255  A    between atoms: _634  and  _636
REMARK  256  A    between atoms: _636  and  _637
REMARK  257  A    between atoms: _639  and  _641
REMARK  258  A    between atoms: _641  and  _642
REMARK  259  A    between atoms: _641  and  _644
REMARK  260  A    between atoms: _644  and  _645
REMARK  261  A    between atoms: _650  and  _652
REMARK  262  A    between atoms: _652  and  _653
REMARK  263  A    between atoms: _652  and  _655
REMARK  264  A    between atoms: _655  and  _656
REMARK                            x       y       z     vdW  Elec       q    Type
REMARK                         _______ _______ _______ _____ _____    ______ ____
ROOT
ATOM      1  C   GLY A   8       6.448 109.126   8.771  0.00  0.00    +0.243 C 
ATOM      2  N   ARG A   9       5.702 108.946   9.856  0.00  0.00    -0.297 N 
ATOM      3  H   ARG A   9       5.184 109.760  10.243  0.00  0.00    +0.150 HD
ATOM      4  O   GLY A   8       7.154 108.242   8.283  0.00  0.00    -0.273 OA
ENDROOT
BRANCH   2   5
ATOM      5  CA  ARG A   9       5.578 107.660  10.527  0.00  0.00    +0.149 C 
BRANCH   5   6
ATOM      6  C   ARG A   9       4.964 106.647   9.573  0.00  0.00    +0.241 C 
ATOM      7  O   ARG A   9       5.349 105.478   9.550  0.00  0.00    -0.273 OA
ATOM      8  N   GLN A  10       4.009 107.113   8.777  0.00  0.00    -0.297 N 
ATOM      9  H   GLN A  10       3.756 108.120   8.827  0.00  0.00    +0.150 HD
BRANCH   8  10
ATOM     10  CA  GLN A  10       3.307 106.252   7.836  0.00  0.00    +0.149 C 
BRANCH  10  11
ATOM     11  C   GLN A  10       4.147 105.954   6.592  0.00  0.00    +0.241 C 
ATOM     12  N   TYR A  11       5.022 106.886   6.218  0.00  0.00    -0.297 N 
ATOM     13  H   TYR A  11       5.060 107.788   6.734  0.00  0.00    +0.150 HD
ATOM     14  O   GLN A  10       4.011 104.889   5.987  0.00  0.00    -0.273 OA
BRANCH  12  15
ATOM     15  CA  TYR A  11       5.928 106.662   5.096  0.00  0.00    +0.153 C 
BRANCH  15  16
ATOM     16  C   TYR A  11       6.786 105.424   5.327  0.00  0.00    +0.241 C 
ATOM     17  N   TRP A  12       7.296 105.284   6.546  0.00  0.00    -0.298 N 
ATOM     18  H   TRP A  12       7.087 106.002   7.269  0.00  0.00    +0.150 HD
ATOM     19  O   TYR A  11       6.990 104.624   4.418  0.00  0.00    -0.273 OA
BRANCH  17  20
ATOM     20  CA  TRP A  12       8.141 104.148   6.894  0.00  0.00    +0.141 C 
BRANCH  20  21
ATOM     21  C   TRP A  12       7.356 102.839   6.887  0.00  0.00    +0.227 C 
ATOM     22  O   TRP A  12       7.875 101.799   6.479  0.00  0.00    -0.286 OA
ENDBRANCH  20  21
BRANCH  20  23
ATOM     23  CB  TRP A  12       8.808 104.360   8.255  0.00  0.00    +0.056 C 
BRANCH  23  24
ATOM     24  CG  TRP A  12       9.899 105.394   8.239  0.00  0.00    -0.002 A 
ATOM     25  CD1 TRP A  12       9.961 106.530   8.993  0.00  0.00    +0.068 A 
ATOM     26  NE1 TRP A  12      11.109 107.226   8.707  0.00  0.00    -0.352 N 
ATOM     27  HE1 TRP A  12      11.395 108.125   9.145  0.00  0.00    +0.166 HD
ATOM     28  CE2 TRP A  12      11.817 106.545   7.752  0.00  0.00    +0.056 A 
ATOM     29  CZ2 TRP A  12      13.034 106.853   7.145  0.00  0.00    +0.017 A 
ATOM     30  CH2 TRP A  12      13.511 105.977   6.210  0.00  0.00    +0.001 A 
ATOM     31  CZ3 TRP A  12      12.807 104.813   5.871  0.00  0.00    +0.000 A 
ATOM     32  CE3 TRP A  12      11.598 104.508   6.470  0.00  0.00    +0.001 A 
ATOM     33  CD2 TRP A  12      11.085 105.384   7.432  0.00  0.00    +0.013 A 
ENDBRANCH  23  24
ENDBRANCH  20  23
ENDBRANCH  17  20
ENDBRANCH  15  16
BRANCH  15  34
ATOM     34  CB  TYR A  11       6.824 107.881   4.851  0.00  0.00    +0.055 C 
BRANCH  34  35
ATOM     35  CG  TYR A  11       7.968 107.596   3.894  0.00  0.00    -0.020 A 
ATOM     36  CD2 TYR A  11       9.224 107.222   4.365  0.00  0.00    -0.001 A 
ATOM     37  CE2 TYR A  11      10.265 106.953   3.497  0.00  0.00    +0.036 A 
ATOM     38  CZ  TYR A  11      10.065 107.068   2.136  0.00  0.00    +0.134 A 
ATOM     39  CE1 TYR A  11       8.829 107.440   1.642  0.00  0.00    +0.036 A 
ATOM     40  CD1 TYR A  11       7.792 107.704   2.520  0.00  0.00    -0.001 A 
BRANCH  38  41
ATOM     41  OH  TYR A  11      11.101 106.805   1.268  0.00  0.00    -0.506 OA
ATOM     42  HH  TYR A  11      10.791 106.934   0.337  0.00  0.00    +0.292 HD
ENDBRANCH  38  41
ENDBRANCH  34  35
ENDBRANCH  15  34
ENDBRANCH  12  15
ENDBRANCH  10  11
BRANCH  10  43
ATOM     43  CB  GLN A  10       1.972 106.882   7.442  0.00  0.00    +0.039 C 
BRANCH  43  44
ATOM     44  CG  GLN A  10       1.162 106.058   6.472  0.00  0.00    +0.087 C 
BRANCH  44  45
ATOM     45  CD  GLN A  10       0.350 104.985   7.163  0.00  0.00    +0.219 C 
ATOM     46  OE1 GLN A  10       0.005 105.110   8.338  0.00  0.00    -0.275 OA
ATOM     47  NE2 GLN A  10       0.055 103.910   6.440  0.00  0.00    -0.329 N 
ATOM     48 HE21 GLN A  10      -0.488 103.131   6.864  0.00  0.00    +0.145 HD
ATOM     49 HE22 GLN A  10       0.367 103.847   5.450  0.00  0.00    +0.145 HD
ENDBRANCH  44  45
ENDBRANCH  43  44
ENDBRANCH  10  43
ENDBRANCH   8  10
ENDBRANCH   5   6
BRANCH   5  50
ATOM     50  CB  ARG A   9       4.687 107.823  11.758  0.00  0.00    +0.033 C 
BRANCH  50  51
ATOM     51  CG  ARG A   9       4.860 106.788  12.853  0.00  0.00    +0.045 C 
BRANCH  51  52
ATOM     52  CD  ARG A   9       4.280 107.338  14.148  0.00  0.00    +0.174 C 
BRANCH  52  53
ATOM     53  NE  ARG A   9       4.230 106.357  15.228  0.00  0.00    -0.265 N 
ATOM     54  CZ  ARG A   9       4.345 106.666  16.516  0.00  0.00    +0.342 C 
ATOM     55  NH2 ARG A   9       4.282 105.715  17.438  0.00  0.00    -0.292 N 
ATOM     56 HH21 ARG A   9       4.372 105.960  18.445  0.00  0.00    +0.255 HD
ATOM     57 HH22 ARG A   9       4.142 104.724  17.154  0.00  0.00    +0.255 HD
ATOM     58  NH1 ARG A   9       4.533 107.928  16.881  0.00  0.00    -0.292 N 
ATOM     59 HH11 ARG A   9       4.623 108.170  17.888  0.00  0.00    +0.255 HD
ATOM     60 HH12 ARG A   9       4.590 108.675  16.160  0.00  0.00    +0.255 HD
ATOM     61  HE  ARG A   9       4.097 105.357  14.975  0.00  0.00    +0.259 HD
ENDBRANCH  52  53
ENDBRANCH  51  52
ENDBRANCH  50  51
ENDBRANCH   5  50
ENDBRANCH   2   5
BRANCH   1  62
ATOM     62  CA  GLY A   8       6.387 110.511   8.155  0.00  0.00    +0.176 C 
BRANCH  62  64
ATOM     63  C   GLU A   7       4.054 110.744   7.529  0.00  0.00    +0.241 C 
ATOM     64  N   GLY A   8       5.073 111.110   8.300  0.00  0.00    -0.295 N 
ATOM     65  H   GLY A   8       4.925 111.842   9.024  0.00  0.00    +0.150 HD
ATOM     66  O   GLU A   7       4.160 109.895   6.643  0.00  0.00    -0.273 OA
BRANCH  63  67
ATOM     67  CA  GLU A   7       2.716 111.435   7.793  0.00  0.00    +0.149 C 
BRANCH  67  70
ATOM     68  C   GLY A   6       2.224 110.669  10.051  0.00  0.00    +0.243 C 
ATOM     69  O   GLY A   6       2.268 109.486   9.711  0.00  0.00    -0.273 OA
ATOM     70  N   GLU A   7       2.474 111.669   9.213  0.00  0.00    -0.297 N 
ATOM     71  H   GLU A   7       2.498 112.643   9.578  0.00  0.00    +0.150 HD
BRANCH  68  72
ATOM     72  CA  GLY A   6       1.877 111.052  11.478  0.00  0.00    +0.176 C 
BRANCH  72  74
ATOM     73  C   ALA A   5       4.068 111.869  12.167  0.00  0.00    +0.241 C 
ATOM     74  N   GLY A   6       2.750 112.029  12.108  0.00  0.00    -0.295 N 
ATOM     75  H   GLY A   6       2.329 112.883  12.527  0.00  0.00    +0.150 HD
ATOM     76  O   ALA A   5       4.661 110.953  11.599  0.00  0.00    -0.273 OA
BRANCH  73  77
ATOM     77  CA  ALA A   5       4.840 112.895  12.986  0.00  0.00    +0.149 C 
ATOM     78  CB  ALA A   5       5.377 113.998  12.090  0.00  0.00    +0.031 C 
BRANCH  77  81
ATOM     79  C   SER A   4       5.697 111.422  14.722  0.00  0.00    +0.243 C 
ATOM     80  O   SER A   4       4.584 111.294  15.230  0.00  0.00    -0.273 OA
ATOM     81  N   ALA A   5       5.929 112.221  13.685  0.00  0.00    -0.297 N 
ATOM     82  H   ALA A   5       6.908 112.369  13.365  0.00  0.00    +0.150 HD
BRANCH  79  83
ATOM     83  CA  SER A   4       6.896 110.656  15.278  0.00  0.00    +0.178 C 
BRANCH  83  85
ATOM     84  C   ALA A   3       8.349 109.721  13.565  0.00  0.00    +0.241 C 
ATOM     85  N   SER A   4       8.049 110.722  14.386  0.00  0.00    -0.295 N 
ATOM     86  H   SER A   4       8.649 111.571  14.393  0.00  0.00    +0.150 HD
ATOM     87  O   ALA A   3       7.692 108.682  13.508  0.00  0.00    -0.273 OA
BRANCH  84  88
ATOM     88  CA  ALA A   3       9.570 109.921  12.674  0.00  0.00    +0.149 C 
ATOM     89  CB  ALA A   3       9.299 109.390  11.273  0.00  0.00    +0.031 C 
BRANCH  88  92
ATOM     90  C   ASN A   2      11.397 109.808  14.280  0.00  0.00    +0.241 C 
ATOM     91  O   ASN A   2      11.017 110.828  14.857  0.00  0.00    -0.273 OA
ATOM     92  N   ALA A   3      10.758 109.288  13.237  0.00  0.00    -0.297 N 
ATOM     93  H   ALA A   3      11.114 108.408  12.812  0.00  0.00    +0.150 HD
BRANCH  90  94
ATOM     94  CA  ASN A   2      12.655 109.076  14.746  0.00  0.00    +0.158 C 
BRANCH  94  97
ATOM     95  C   HIS A   1      13.124 106.761  14.168  0.00  0.00    +0.239 C 
ATOM     96  O   HIS A   1      12.640 106.360  15.228  0.00  0.00    -0.274 OA
ATOM     97  N   ASN A   2      13.138 108.047  13.827  0.00  0.00    -0.297 N 
ATOM     98  H   ASN A   2      13.498 108.325  12.892  0.00  0.00    +0.150 HD
BRANCH  95  99
ATOM     99  CA  HIS A   1      13.743 105.777  13.172  0.00  0.00    +0.151 C 
BRANCH  99 100
ATOM    100  N   HIS A   1      13.759 104.421  13.716  0.00  0.00    -0.238 NA
ATOM    101  H   HIS A   1      12.937 104.080  14.254  0.00  0.00    +0.142 HD
ENDBRANCH  99 100
BRANCH  99 102
ATOM    102  CB  HIS A   1      13.008 105.821  11.827  0.00  0.00    +0.074 C 
BRANCH 102 103
ATOM    103  CG  HIS A   1      11.539 105.546  11.926  0.00  0.00    +0.082 A 
ATOM    104  ND1 HIS A   1      10.637 106.481  12.375  0.00  0.00    -0.227 NA
ATOM    105  CE1 HIS A   1       9.418 105.964  12.351  0.00  0.00    +0.199 A 
ATOM    106  NE2 HIS A   1       9.504 104.728  11.896  0.00  0.00    -0.221 NA
ATOM    107  CD2 HIS A   1      10.816 104.439  11.620  0.00  0.00    +0.115 A 
ENDBRANCH 102 103
ENDBRANCH  99 102
ENDBRANCH  95  99
ENDBRANCH  94  97
BRANCH  94 108
ATOM    108  CB  ASN A   2      13.761 110.089  15.059  0.00  0.00    +0.114 C 
BRANCH 108 109
ATOM    109  CG  ASN A   2      14.024 111.043  13.909  0.00  0.00    +0.222 C 
ATOM    110  ND2 ASN A   2      14.590 112.203  14.223  0.00  0.00    -0.329 N 
ATOM    111 HD21 ASN A   2      14.827 112.415  15.213  0.00  0.00    +0.145 HD
ATOM    112 HD22 ASN A   2      14.796 112.900  13.479  0.00  0.00    +0.145 HD
ATOM    113  OD1 ASN A   2      13.723 110.743  12.753  0.00  0.00    -0.275 OA
ENDBRANCH 108 109
ENDBRANCH  94 108
ENDBRANCH  90  94
ENDBRANCH  88  92
ENDBRANCH  84  88
ENDBRANCH  83  85
BRANCH  83 114
ATOM    114  CB  SER A   4       7.261 111.165  16.673  0.00  0.00    +0.166 C 
BRANCH 114 115
ATOM    115  OG  SER A   4       7.912 112.418  16.600  0.00  0.00    -0.380 OA
ATOM    116  H   SER A   4       8.741 112.327  16.067  0.00  0.00    +0.211 HD
ENDBRANCH 114 115
ENDBRANCH  83 114
ENDBRANCH  79  83
ENDBRANCH  77  81
ENDBRANCH  73  77
ENDBRANCH  72  74
ENDBRANCH  68  72
ENDBRANCH  67  70
BRANCH  67 117
ATOM    117  CB  GLU A   7       2.629 112.752   7.020  0.00  0.00    +0.041 C 
BRANCH 117 118
ATOM    118  CG  GLU A   7       1.889 112.649   5.699  0.00  0.00    +0.116 C 
BRANCH 118 119
ATOM    119  CD  GLU A   7       1.344 113.985   5.237  0.00  0.00    +0.365 C 
ATOM    120  OE2 GLU A   7       0.798 114.726   6.082  0.00  0.00    -0.246 OA
ATOM    121  OE1 GLU A   7       1.457 114.295   4.032  0.00  0.00    -0.246 OA
ENDBRANCH 118 119
ENDBRANCH 117 118
ENDBRANCH  67 117
ENDBRANCH  63  67
ENDBRANCH  62  64
ENDBRANCH   1  62
TORSDOF 45
REMARK  Name = ../refined-set-2016/4c1t/4c1t_pocket.pdb
REMARK  264 active torsions:
REMARK  status: ('A' for Active; 'I' for Inactive)
REMARK    1  A    between atoms: _1  and  _3
REMARK    2  A    between atoms: _3  and  _4
REMARK    3  A    between atoms: _3  and  _6
REMARK    4  A    between atoms: _6  and  _7
REMARK    5  A    between atoms: _12  and  _14
REMARK    6  A    between atoms: _14  and  _15
REMARK    7  A    between atoms: _14  and  _17
REMARK    8  A    between atoms: _17  and  _18
REMARK    9  A    between atoms: _23  and  _25
REMARK   10  A    between atoms: _25  and  _26
REMARK   11  A    between atoms: _29  and  _31
REMARK   12  A    between atoms: _31  and  _32
REMARK   13  A    between atoms: _31  and  _34
REMARK   14  A    between atoms: _34  and  _35
REMARK   15  A    between atoms: _37  and  _39
REMARK   16  A    between atoms: _39  and  _40
REMARK   17  A    between atoms: _43  and  _45
REMARK   18  A    between atoms: _45  and  _46
REMARK   19  A    between atoms: _48  and  _50
REMARK   20  A    between atoms: _50  and  _51
REMARK   21  A    between atoms: _50  and  _53
REMARK   22  A    between atoms: _53  and  _54
REMARK   23  A    between atoms: _54  and  _55
REMARK   24  A    between atoms: _58  and  _60
REMARK   25  A    between atoms: _60  and  _61
REMARK   26  A    between atoms: _63  and  _65
REMARK   27  A    between atoms: _65  and  _66
REMARK   28  A    between atoms: _65  and  _68
REMARK   29  A    between atoms: _68  and  _69
REMARK   30  A    between atoms: _69  and  _70
REMARK   31  A    between atoms: _70  and  _71
REMARK   32  A    between atoms: _80  and  _82
REMARK   33  A    between atoms: _82  and  _83
REMARK   34  A    between atoms: _82  and  _85
REMARK   35  A    between atoms: _85  and  _86
REMARK   36  A    between atoms: _86  and  _87
REMARK   37  A    between atoms: _92  and  _94
REMARK   38  A    between atoms: _94  and  _95
REMARK   39  A    between atoms: _94  and  _97
REMARK   40  A    between atoms: _97  and  _98
REMARK   41  A    between atoms: _103  and  _104
REMARK   42  A    between atoms: _106  and  _108
REMARK   43  A    between atoms: _108  and  _109
REMARK   44  A    between atoms: _108  and  _111
REMARK   45  A    between atoms: _111  and  _112
REMARK   46  A    between atoms: _122  and  _124
REMARK   47  A    between atoms: _124  and  _125
REMARK   48  A    between atoms: _124  and  _127
REMARK   49  A    between atoms: _127  and  _128
REMARK   50  A    between atoms: _131  and  _133
REMARK   51  A    between atoms: _133  and  _134
REMARK   52  A    between atoms: _133  and  _136
REMARK   53  A    between atoms: _136  and  _137
REMARK   54  A    between atoms: _137  and  _138
REMARK   55  A    between atoms: _143  and  _145
REMARK   56  A    between atoms: _145  and  _146
REMARK   57  A    between atoms: _145  and  _148
REMARK   58  A    between atoms: _148  and  _149
REMARK   59  A    between atoms: _154  and  _156
REMARK   60  A    between atoms: _156  and  _157
REMARK   61  A    between atoms: _156  and  _159
REMARK   62  A    between atoms: _159  and  _160
REMARK   63  A    between atoms: _160  and  _161
REMARK   64  A    between atoms: _164  and  _166
REMARK   65  A    between atoms: _166  and  _167
REMARK   66  A    between atoms: _166  and  _169
REMARK   67  A    between atoms: _169  and  _170
REMARK   68  A    between atoms: _173  and  _175
REMARK   69  A    between atoms: _175  and  _176
REMARK   70  A    between atoms: _175  and  _178
REMARK   71  A    between atoms: _178  and  _179
REMARK   72  A    between atoms: _185  and  _187
REMARK   73  A    between atoms: _187  and  _188
REMARK   74  A    between atoms: _191  and  _193
REMARK   75  A    between atoms: _193  and  _194
REMARK   76  A    between atoms: _196  and  _198
REMARK   77  A    between atoms: _198  and  _199
REMARK   78  A    between atoms: _198  and  _201
REMARK   79  A    between atoms: _201  and  _202
REMARK   80  A    between atoms: _202  and  _203
REMARK   81  A    between atoms: _203  and  _204
REMARK   82  A    between atoms: _204  and  _205
REMARK   83  A    between atoms: _209  and  _211
REMARK   84  A    between atoms: _211  and  _212
REMARK   85  A    between atoms: _211  and  _214
REMARK   86  A    between atoms: _214  and  _215
REMARK   87  A    between atoms: _218  and  _220
REMARK   88  A    between atoms: _220  and  _221
REMARK   89  A    between atoms: _220  and  _223
REMARK   90  A    between atoms: _223  and  _224
REMARK   91  A    between atoms: _224  and  _225
REMARK   92  A    between atoms: _230  and  _232
REMARK   93  A    between atoms: _232  and  _233
REMARK   94  A    between atoms: _232  and  _235
REMARK   95  A    between atoms: _235  and  _236
REMARK   96  A    between atoms: _236  and  _237
REMARK   97  A    between atoms: _239  and  _241
REMARK   98  A    between atoms: _241  and  _242
REMARK   99  A    between atoms: _241  and  _244
REMARK  100  A    between atoms: _244  and  _245
REMARK  101  A    between atoms: _247  and  _249
REMARK  102  A    between atoms: _249  and  _250
REMARK  103  A    between atoms: _249  and  _252
REMARK  104  A    between atoms: _252  and  _253
REMARK  105  A    between atoms: _256  and  _258
REMARK  106  A    between atoms: _258  and  _259
REMARK  107  A    between atoms: _261  and  _263
REMARK  108  A    between atoms: _263  and  _264
REMARK  109  A    between atoms: _263  and  _266
REMARK  110  A    between atoms: _266  and  _267
REMARK  111  A    between atoms: _267  and  _268
REMARK  112  A    between atoms: _268  and  _269
REMARK  113  A    between atoms: _269  and  _270
REMARK  114  A    between atoms: _274  and  _276
REMARK  115  A    between atoms: _276  and  _277
REMARK  116  A    between atoms: _276  and  _279
REMARK  117  A    between atoms: _279  and  _280
REMARK  118  A    between atoms: _282  and  _284
REMARK  119  A    between atoms: _284  and  _285
REMARK  120  A    between atoms: _284  and  _287
REMARK  121  A    between atoms: _287  and  _288
REMARK  122  A    between atoms: _288  and  _289
REMARK  123  A    between atoms: _292  and  _294
REMARK  124  A    between atoms: _294  and  _295
REMARK  125  A    between atoms: _294  and  _297
REMARK  126  A    between atoms: _297  and  _298
REMARK  127  A    between atoms: _301  and  _303
REMARK  128  A    between atoms: _303  and  _304
REMARK  129  A    between atoms: _307  and  _309
REMARK  130  A    between atoms: _309  and  _310
REMARK  131  A    between atoms: _309  and  _312
REMARK  132  A    between atoms: _312  and  _313
REMARK  133  A    between atoms: _324  and  _325
REMARK  134  A    between atoms: _330  and  _332
REMARK  135  A    between atoms: _332  and  _333
REMARK  136  A    between atoms: _336  and  _338
REMARK  137  A    between atoms: _338  and  _339
REMARK  138  A    between atoms: _338  and  _341
REMARK  139  A    between atoms: _341  and  _342
REMARK  140  A    between atoms: _347  and  _349
REMARK  141  A    between atoms: _349  and  _350
REMARK  142  A    between atoms: _349  and  _352
REMARK  143  A    between atoms: _352  and  _353
REMARK  144  A    between atoms: _358  and  _359
REMARK  145  A    between atoms: _361  and  _363
REMARK  146  A    between atoms: _363  and  _364
REMARK  147  A    between atoms: _367  and  _369
REMARK  148  A    between atoms: _369  and  _370
REMARK  149  A    between atoms: _369  and  _372
REMARK  150  A    between atoms: _372  and  _373
REMARK  151  A    between atoms: _373  and  _374
REMARK  152  A    between atoms: _379  and  _381
REMARK  153  A    between atoms: _381  and  _382
REMARK  154  A    between atoms: _381  and  _384
REMARK  155  A    between atoms: _384  and  _385
REMARK  156  A    between atoms: _385  and  _386
REMARK  157  A    between atoms: _391  and  _393
REMARK  158  A    between atoms: _393  and  _394
REMARK  159  A    between atoms: _393  and  _396
REMARK  160  A    between atoms: _396  and  _397
REMARK  161  A    between atoms: _397  and  _398
REMARK  162  A    between atoms: _400  and  _402
REMARK  163  A    between atoms: _402  and  _403
REMARK  164  A    between atoms: _405  and  _407
REMARK  165  A    between atoms: _407  and  _408
REMARK  166  A    between atoms: _411  and  _413
REMARK  167  A    between atoms: _413  and  _414
REMARK  168  A    between atoms: _413  and  _416
REMARK  169  A    between atoms: _416  and  _417
REMARK  170  A    between atoms: _427  and  _429
REMARK  171  A    between atoms: _429  and  _430
REMARK  172  A    between atoms: _429  and  _432
REMARK  173  A    between atoms: _432  and  _433
REMARK  174  A    between atoms: _433  and  _434
REMARK  175  A    between atoms: _437  and  _439
REMARK  176  A    between atoms: _439  and  _440
REMARK  177  A    between atoms: _442  and  _444
REMARK  178  A    between atoms: _444  and  _445
REMARK  179  A    between atoms: _444  and  _447
REMARK  180  A    between atoms: _450  and  _452
REMARK  181  A    between atoms: _452  and  _453
REMARK  182  A    between atoms: _452  and  _455
REMARK  183  A    between atoms: _455  and  _456
REMARK  184  A    between atoms: _459  and  _461
REMARK  185  A    between atoms: _461  and  _462
REMARK  186  A    between atoms: _461  and  _464
REMARK  187  A    between atoms: _464  and  _465
REMARK  188  A    between atoms: _468  and  _470
REMARK  189  A    between atoms: _470  and  _471
REMARK  190  A    between atoms: _470  and  _473
REMARK  191  A    between atoms: _473  and  _474
REMARK  192  A    between atoms: _474  and  _475
REMARK  193  A    between atoms: _477  and  _479
REMARK  194  A    between atoms: _479  and  _480
REMARK  195  A    between atoms: _482  and  _484
REMARK  196  A    between atoms: _484  and  _485
REMARK  197  A    between atoms: _487  and  _489
REMARK  198  A    between atoms: _489  and  _490
REMARK  199  A    between atoms: _489  and  _492
REMARK  200  A    between atoms: _495  and  _497
REMARK  201  A    between atoms: _497  and  _498
REMARK  202  A    between atoms: _497  and  _500
REMARK  203  A    between atoms: _500  and  _501
REMARK  204  A    between atoms: _504  and  _506
REMARK  205  A    between atoms: _506  and  _507
REMARK  206  A    between atoms: _506  and  _509
REMARK  207  A    between atoms: _509  and  _510
REMARK  208  A    between atoms: _515  and  _516
REMARK  209  A    between atoms: _518  and  _520
REMARK  210  A    between atoms: _520  and  _521
REMARK  211  A    between atoms: _520  and  _523
REMARK  212  A    between atoms: _523  and  _524
REMARK  213  A    between atoms: _529  and  _530
REMARK  214  A    between atoms: _532  and  _534
REMARK  215  A    between atoms: _534  and  _535
REMARK  216  A    between atoms: _538  and  _540
REMARK  217  A    between atoms: _540  and  _541
REMARK  218  A    between atoms: _540  and  _543
REMARK  219  A    between atoms: _543  and  _544
REMARK  220  A    between atoms: _550  and  _552
REMARK  221  A    between atoms: _552  and  _553
REMARK  222  A    between atoms: _552  and  _555
REMARK  223  A    between atoms: _555  and  _556
REMARK  224  A    between atoms: _558  and  _560
REMARK  225  A    between atoms: _560  and  _561
REMARK  226  A    between atoms: _560  and  _563
REMARK  227  A    between atoms: _563  and  _564
REMARK  228  A    between atoms: _567  and  _569
REMARK  229  A    between atoms: _569  and  _570
REMARK  230  A    between atoms: _569  and  _572
REMARK  231  A    between atoms: _572  and  _573
REMARK  232  A    between atoms: _576  and  _578
REMARK  233  A    between atoms: _578  and  _579
REMARK  234  A    between atoms: _578  and  _581
REMARK  235  A    between atoms: _581  and  _582
REMARK  236  A    between atoms: _592  and  _594
REMARK  237  A    between atoms: _594  and  _595
REMARK  238  A    between atoms: _594  and  _597
REMARK  239  A    between atoms: _597  and  _598
REMARK  240  A    between atoms: _598  and  _599
REMARK  241  A    between atoms: _601  and  _603
REMARK  242  A    between atoms: _603  and  _604
REMARK  243  A    between atoms: _603  and  _606
REMARK  244  A    between atoms: _606  and  _607
REMARK  245  A    between atoms: _610  and  _612
REMARK  246  A    between atoms: _612  and  _613
REMARK  247  A    between atoms: _612  and  _615
REMARK  248  A    between atoms: _615  and  _616
REMARK  249  A    between atoms: _619  and  _621
REMARK  250  A    between atoms: _621  and  _622
REMARK  251  A    between atoms: _625  and  _627
REMARK  252  A    between atoms: _627  and  _628
REMARK  253  A    between atoms: _627  and  _630
REMARK  254  A    between atoms: _630  and  _631
REMARK  255  A    between atoms: _634  and  _636
REMARK  256  A    between atoms: _636  and  _637
REMARK  257  A    between atoms: _639  and  _641
REMARK  258  A    between atoms: _641  and  _642
REMARK  259  A    between atoms: _641  and  _644
REMARK  260  A    between atoms: _644  and  _645
REMARK  261  A    between atoms: _650  and  _652
REMARK  262  A    between atoms: _652  and  _653
REMARK  263  A    between atoms: _652  and  _655
REMARK  264  A    between atoms: _655  and  _656
REMARK                            x       y       z     vdW  Elec       q    Type
REMARK                         _______ _______ _______ _____ _____    ______ ____
ROOT
ATOM      1  CA  PHE A   6      16.818 108.423  20.188  0.00  0.00    +0.153 C 
ENDROOT
BRANCH   1   4
ATOM      2  C   ASP A   5      16.048 108.886  22.455  0.00  0.00    +0.241 C 
ATOM      3  O   ASP A   5      16.642 107.915  22.923  0.00  0.00    -0.273 OA
ATOM      4  N   PHE A   6      16.160 109.263  21.185  0.00  0.00    -0.297 N 
ATOM      5  H   PHE A   6      15.768 110.181  20.894  0.00  0.00    +0.150 HD
BRANCH   2   6
ATOM      6  CA  ASP A   5      15.132 109.726  23.334  0.00  0.00    +0.160 C 
BRANCH   6   9
ATOM      7  C   GLU A   4      15.310 112.130  23.007  0.00  0.00    +0.241 C 
ATOM      8  O   GLU A   4      16.138 112.236  23.914  0.00  0.00    -0.273 OA
ATOM      9  N   ASP A   5      14.751 110.971  22.674  0.00  0.00    -0.297 N 
ATOM     10  H   ASP A   5      14.027 110.951  21.928  0.00  0.00    +0.150 HD
BRANCH   7  11
ATOM     11  CA  GLU A   4      14.882 113.353  22.196  0.00  0.00    +0.149 C 
BRANCH  11  13
ATOM     12  C   ASN A   3      14.721 112.447  19.944  0.00  0.00    +0.241 C 
ATOM     13  N   GLU A   4      14.127 112.999  20.997  0.00  0.00    -0.297 N 
ATOM     14  H   GLU A   4      13.104 113.183  20.967  0.00  0.00    +0.150 HD
ATOM     15  O   ASN A   3      15.909 112.129  19.939  0.00  0.00    -0.273 OA
BRANCH  12  16
ATOM     16  CA  ASN A   3      13.849 112.200  18.715  0.00  0.00    +0.158 C 
BRANCH  16  19
ATOM     17  C   GLN A   2      12.239 110.702  19.783  0.00  0.00    +0.241 C 
ATOM     18  O   GLN A   2      13.106 110.117  20.433  0.00  0.00    -0.273 OA
ATOM     19  N   ASN A   3      12.491 111.751  19.007  0.00  0.00    -0.297 N 
ATOM     20  H   ASN A   3      11.691 112.271  18.593  0.00  0.00    +0.150 HD
BRANCH  17  21
ATOM     21  CA  GLN A   2      10.789 110.230  19.820  0.00  0.00    +0.149 C 
BRANCH  21  23
ATOM     22  C   ILE A   1      11.264 108.159  18.639  0.00  0.00    +0.238 C 
ATOM     23  N   GLN A   2      10.759 108.777  19.703  0.00  0.00    -0.297 N 
ATOM     24  H   GLN A   2      10.334 108.213  20.466  0.00  0.00    +0.150 HD
ATOM     25  O   ILE A   1      11.734 108.761  17.677  0.00  0.00    -0.274 OA
BRANCH  22  26
ATOM     26  CA  ILE A   1      11.231 106.639  18.650  0.00  0.00    +0.145 C 
BRANCH  26  27
ATOM     27  N   ILE A   1      10.666 106.146  17.402  0.00  0.00    -0.238 NA
ATOM     28  H   ILE A   1      11.005 106.542  16.502  0.00  0.00    +0.142 HD
ENDBRANCH  26  27
BRANCH  26  29
ATOM     29  CB  ILE A   1      12.666 106.109  18.845  0.00  0.00    +0.025 C 
ATOM     30  CG2 ILE A   1      13.286 106.674  20.121  0.00  0.00    +0.002 C 
BRANCH  29  31
ATOM     31  CG1 ILE A   1      12.671 104.577  18.862  0.00  0.00    +0.002 C 
ATOM     32  CD1 ILE A   1      14.052 103.968  18.797  0.00  0.00    +0.000 C 
ENDBRANCH  29  31
ENDBRANCH  26  29
ENDBRANCH  22  26
ENDBRANCH  21  23
BRANCH  21  33
ATOM     33  CB  GLN A   2      10.095 110.690  21.105  0.00  0.00    +0.039 C 
BRANCH  33  34
ATOM     34  CG  GLN A   2       9.400 112.042  20.989  0.00  0.00    +0.087 C 
BRANCH  34  35
ATOM     35  CD  GLN A   2      10.376 113.202  20.916  0.00  0.00    +0.219 C 
ATOM     36  OE1 GLN A   2      11.336 113.270  21.684  0.00  0.00    -0.275 OA
ATOM     37  NE2 GLN A   2      10.138 114.119  19.984  0.00  0.00    -0.329 N 
ATOM     38 HE21 GLN A   2      10.775 114.934  19.882  0.00  0.00    +0.145 HD
ATOM     39 HE22 GLN A   2       9.314 114.021  19.357  0.00  0.00    +0.145 HD
ENDBRANCH  34  35
ENDBRANCH  33  34
ENDBRANCH  21  33
ENDBRANCH  17  21
ENDBRANCH  16  19
BRANCH  16  40
ATOM     40  CB  ASN A   3      13.824 113.452  17.835  0.00  0.00    +0.114 C 
BRANCH  40  41
ATOM     41  CG  ASN A   3      15.204 113.835  17.334  0.00  0.00    +0.222 C 
ATOM     42  ND2 ASN A   3      15.827 114.810  17.991  0.00  0.00    -0.329 N 
ATOM     43 HD21 ASN A   3      15.365 115.268  18.803  0.00  0.00    +0.145 HD
ATOM     44 HD22 ASN A   3      16.776 115.114  17.693  0.00  0.00    +0.145 HD
ATOM     45  OD1 ASN A   3      15.705 113.261  16.368  0.00  0.00    -0.275 OA
ENDBRANCH  40  41
ENDBRANCH  16  40
ENDBRANCH  12  16
ENDBRANCH  11  13
BRANCH  11  46
ATOM     46  CB  GLU A   4      14.085 114.328  23.066  0.00  0.00    +0.041 C 
BRANCH  46  47
ATOM     47  CG  GLU A   4      13.621 115.576  22.323  0.00  0.00    +0.116 C 
BRANCH  47  48
ATOM     48  CD  GLU A   4      14.719 116.189  21.472  0.00  0.00    +0.365 C 
ATOM     49  OE2 GLU A   4      15.705 116.698  22.045  0.00  0.00    -0.246 OA
ATOM     50  OE1 GLU A   4      14.596 116.158  20.229  0.00  0.00    -0.246 OA
ENDBRANCH  47  48
ENDBRANCH  46  47
ENDBRANCH  11  46
ENDBRANCH   7  11
ENDBRANCH   6   9
BRANCH   6  51
ATOM     51  CB  ASP A   5      13.896 108.897  23.693  0.00  0.00    +0.143 C 
BRANCH  51  52
ATOM     52  CG  ASP A   5      12.952 109.623  24.623  0.00  0.00    +0.367 C 
ATOM     53  OD2 ASP A   5      13.433 110.274  25.574  0.00  0.00    -0.246 OA
ATOM     54  OD1 ASP A   5      11.725 109.530  24.411  0.00  0.00    -0.246 OA
ENDBRANCH  51  52
ENDBRANCH   6  51
ENDBRANCH   2   6
ENDBRANCH   1   4
BRANCH   1  55
ATOM     55  C   PHE A   6      18.285 108.126  20.494  0.00  0.00    +0.241 C 
ATOM     56  N   ALA A   7      19.059 109.170  20.774  0.00  0.00    -0.297 N 
ATOM     57  H   ALA A   7      18.645 110.124  20.773  0.00  0.00    +0.150 HD
ATOM     58  O   PHE A   6      18.704 106.969  20.467  0.00  0.00    -0.273 OA
BRANCH  56  59
ATOM     59  CA  ALA A   7      20.476 109.008  21.082  0.00  0.00    +0.149 C 
ATOM     60  CB  ALA A   7      21.136 110.365  21.282  0.00  0.00    +0.031 C 
BRANCH  59  61
ATOM     61  C   ALA A   7      20.675 108.129  22.314  0.00  0.00    +0.241 C 
ATOM     62  N   GLY A   8      19.801 108.296  23.301  0.00  0.00    -0.295 N 
ATOM     63  H   GLY A   8      19.032 108.986  23.184  0.00  0.00    +0.150 HD
ATOM     64  O   ALA A   7      21.592 107.309  22.360  0.00  0.00    -0.273 OA
BRANCH  62  65
ATOM     65  CA  GLY A   8      19.891 107.542  24.537  0.00  0.00    +0.176 C 
BRANCH  65  66
ATOM     66  C   GLY A   8      19.691 106.050  24.346  0.00  0.00    +0.243 C 
ATOM     67  O   GLY A   8      20.497 105.245  24.803  0.00  0.00    -0.273 OA
ATOM     68  N   LYS A   9      18.616 105.678  23.658  0.00  0.00    -0.297 N 
ATOM     69  H   LYS A   9      17.986 106.407  23.267  0.00  0.00    +0.150 HD
BRANCH  68  70
ATOM     70  CA  LYS A   9      18.298 104.267  23.438  0.00  0.00    +0.149 C 
BRANCH  70  71
ATOM     71  C   LYS A   9      19.227 103.596  22.426  0.00  0.00    +0.241 C 
ATOM     72  O   LYS A   9      19.537 102.411  22.561  0.00  0.00    -0.273 OA
ATOM     73  N   LEU A  10      19.661 104.342  21.413  0.00  0.00    -0.297 N 
ATOM     74  H   LEU A  10      19.343 105.329  21.330  0.00  0.00    +0.150 HD
BRANCH  73  75
ATOM     75  CA  LEU A  10      20.576 103.795  20.418  0.00  0.00    +0.149 C 
BRANCH  75  76
ATOM     76  C   LEU A  10      21.930 103.457  21.034  0.00  0.00    +0.241 C 
ATOM     77  N   GLN A  11      22.500 104.414  21.761  0.00  0.00    -0.298 N 
ATOM     78  H   GLN A  11      22.017 105.329  21.864  0.00  0.00    +0.150 HD
ATOM     79  O   LEU A  10      22.445 102.352  20.854  0.00  0.00    -0.273 OA
BRANCH  77  80
ATOM     80  CA  GLN A  11      23.785 104.211  22.416  0.00  0.00    +0.137 C 
BRANCH  80  81
ATOM     81  C   GLN A  11      23.694 103.123  23.481  0.00  0.00    +0.227 C 
ATOM     82  O   GLN A  11      24.654 102.397  23.714  0.00  0.00    -0.286 OA
ENDBRANCH  80  81
BRANCH  80  83
ATOM     83  CB  GLN A  11      24.290 105.516  23.032  0.00  0.00    +0.037 C 
BRANCH  83  84
ATOM     84  CG  GLN A  11      24.674 106.578  22.014  0.00  0.00    +0.087 C 
BRANCH  84  85
ATOM     85  CD  GLN A  11      25.042 107.898  22.663  0.00  0.00    +0.219 C 
ATOM     86  OE1 GLN A  11      24.703 108.150  23.820  0.00  0.00    -0.275 OA
ATOM     87  NE2 GLN A  11      25.735 108.753  21.918  0.00  0.00    -0.329 N 
ATOM     88 HE21 GLN A  11      26.012 109.676  22.308  0.00  0.00    +0.145 HD
ATOM     89 HE22 GLN A  11      26.000 108.499  20.945  0.00  0.00    +0.145 HD
ENDBRANCH  84  85
ENDBRANCH  83  84
ENDBRANCH  80  83
ENDBRANCH  77  80
ENDBRANCH  75  76
BRANCH  75  90
ATOM     90  CB  LEU A  10      20.759 104.769  19.257  0.00  0.00    +0.029 C 
BRANCH  90  91
ATOM     91  CG  LEU A  10      21.671 104.234  18.153  0.00  0.00    +0.002 C 
ATOM     92  CD2 LEU A  10      21.017 103.041  17.472  0.00  0.00    +0.000 C 
ATOM     93  CD1 LEU A  10      22.028 105.316  17.142  0.00  0.00    +0.000 C 
ENDBRANCH  90  91
ENDBRANCH  75  90
ENDBRANCH  73  75
ENDBRANCH  70  71
BRANCH  70  94
ATOM     94  CB  LYS A   9      16.836 104.089  23.018  0.00  0.00    +0.029 C 
BRANCH  94  95
ATOM     95  CG  LYS A   9      15.850 104.353  24.151  0.00  0.00    +0.000 C 
BRANCH  95  96
ATOM     96  CD  LYS A   9      14.402 104.470  23.669  0.00  0.00    -0.024 C 
BRANCH  96  97
ATOM     97  CE  LYS A   9      14.149 103.737  22.366  0.00  0.00    -0.086 C 
BRANCH  97  98
ATOM     98  NZ  LYS A   9      13.515 102.401  22.587  0.00  0.00    +0.380 N 
ATOM     99  HZ1 LYS A   9      14.142 101.814  23.173  0.00  0.00    -0.089 HD
ATOM    100  HZ2 LYS A   9      12.603 102.527  23.071  0.00  0.00    -0.089 HD
ATOM    101  HZ3 LYS A   9      13.361 101.936  21.670  0.00  0.00    -0.089 HD
ENDBRANCH  97  98
ENDBRANCH  96  97
ENDBRANCH  95  96
ENDBRANCH  94  95
ENDBRANCH  70  94
ENDBRANCH  68  70
ENDBRANCH  65  66
ENDBRANCH  62  65
ENDBRANCH  59  61
ENDBRANCH  56  59
ENDBRANCH   1  55
BRANCH   1 102
ATOM    102  CB  PHE A   6      16.689 109.034  18.792  0.00  0.00    +0.055 C 
BRANCH 102 103
ATOM    103  CG  PHE A   6      16.836 108.033  17.686  0.00  0.00    -0.020 A 
ATOM    104  CD2 PHE A   6      15.736 107.329  17.225  0.00  0.00    -0.004 A 
ATOM    105  CE2 PHE A   6      15.867 106.399  16.212  0.00  0.00    -0.000 A 
ATOM    106  CZ  PHE A   6      17.106 106.160  15.655  0.00  0.00    -0.000 A 
ATOM    107  CE1 PHE A   6      18.211 106.852  16.109  0.00  0.00    -0.000 A 
ATOM    108  CD1 PHE A   6      18.074 107.780  17.121  0.00  0.00    -0.004 A 
ENDBRANCH 102 103
ENDBRANCH   1 102
TORSDOF 46
REMARK  Name = ../refined-set-2016/4c1t/4c1t_pocket.pdb
REMARK  264 active torsions:
REMARK  status: ('A' for Active; 'I' for Inactive)
REMARK    1  A    between atoms: _1  and  _3
REMARK    2  A    between atoms: _3  and  _4
REMARK    3  A    between atoms: _3  and  _6
REMARK    4  A    between atoms: _6  and  _7
REMARK    5  A    between atoms: _12  and  _14
REMARK    6  A    between atoms: _14  and  _15
REMARK    7  A    between atoms: _14  and  _17
REMARK    8  A    between atoms: _17  and  _18
REMARK    9  A    between atoms: _23  and  _25
REMARK   10  A    between atoms: _25  and  _26
REMARK   11  A    between atoms: _29  and  _31
REMARK   12  A    between atoms: _31  and  _32
REMARK   13  A    between atoms: _31  and  _34
REMARK   14  A    between atoms: _34  and  _35
REMARK   15  A    between atoms: _37  and  _39
REMARK   16  A    between atoms: _39  and  _40
REMARK   17  A    between atoms: _43  and  _45
REMARK   18  A    between atoms: _45  and  _46
REMARK   19  A    between atoms: _48  and  _50
REMARK   20  A    between atoms: _50  and  _51
REMARK   21  A    between atoms: _50  and  _53
REMARK   22  A    between atoms: _53  and  _54
REMARK   23  A    between atoms: _54  and  _55
REMARK   24  A    between atoms: _58  and  _60
REMARK   25  A    between atoms: _60  and  _61
REMARK   26  A    between atoms: _63  and  _65
REMARK   27  A    between atoms: _65  and  _66
REMARK   28  A    between atoms: _65  and  _68
REMARK   29  A    between atoms: _68  and  _69
REMARK   30  A    between atoms: _69  and  _70
REMARK   31  A    between atoms: _70  and  _71
REMARK   32  A    between atoms: _80  and  _82
REMARK   33  A    between atoms: _82  and  _83
REMARK   34  A    between atoms: _82  and  _85
REMARK   35  A    between atoms: _85  and  _86
REMARK   36  A    between atoms: _86  and  _87
REMARK   37  A    between atoms: _92  and  _94
REMARK   38  A    between atoms: _94  and  _95
REMARK   39  A    between atoms: _94  and  _97
REMARK   40  A    between atoms: _97  and  _98
REMARK   41  A    between atoms: _103  and  _104
REMARK   42  A    between atoms: _106  and  _108
REMARK   43  A    between atoms: _108  and  _109
REMARK   44  A    between atoms: _108  and  _111
REMARK   45  A    between atoms: _111  and  _112
REMARK   46  A    between atoms: _122  and  _124
REMARK   47  A    between atoms: _124  and  _125
REMARK   48  A    between atoms: _124  and  _127
REMARK   49  A    between atoms: _127  and  _128
REMARK   50  A    between atoms: _131  and  _133
REMARK   51  A    between atoms: _133  and  _134
REMARK   52  A    between atoms: _133  and  _136
REMARK   53  A    between atoms: _136  and  _137
REMARK   54  A    between atoms: _137  and  _138
REMARK   55  A    between atoms: _143  and  _145
REMARK   56  A    between atoms: _145  and  _146
REMARK   57  A    between atoms: _145  and  _148
REMARK   58  A    between atoms: _148  and  _149
REMARK   59  A    between atoms: _154  and  _156
REMARK   60  A    between atoms: _156  and  _157
REMARK   61  A    between atoms: _156  and  _159
REMARK   62  A    between atoms: _159  and  _160
REMARK   63  A    between atoms: _160  and  _161
REMARK   64  A    between atoms: _164  and  _166
REMARK   65  A    between atoms: _166  and  _167
REMARK   66  A    between atoms: _166  and  _169
REMARK   67  A    between atoms: _169  and  _170
REMARK   68  A    between atoms: _173  and  _175
REMARK   69  A    between atoms: _175  and  _176
REMARK   70  A    between atoms: _175  and  _178
REMARK   71  A    between atoms: _178  and  _179
REMARK   72  A    between atoms: _185  and  _187
REMARK   73  A    between atoms: _187  and  _188
REMARK   74  A    between atoms: _191  and  _193
REMARK   75  A    between atoms: _193  and  _194
REMARK   76  A    between atoms: _196  and  _198
REMARK   77  A    between atoms: _198  and  _199
REMARK   78  A    between atoms: _198  and  _201
REMARK   79  A    between atoms: _201  and  _202
REMARK   80  A    between atoms: _202  and  _203
REMARK   81  A    between atoms: _203  and  _204
REMARK   82  A    between atoms: _204  and  _205
REMARK   83  A    between atoms: _209  and  _211
REMARK   84  A    between atoms: _211  and  _212
REMARK   85  A    between atoms: _211  and  _214
REMARK   86  A    between atoms: _214  and  _215
REMARK   87  A    between atoms: _218  and  _220
REMARK   88  A    between atoms: _220  and  _221
REMARK   89  A    between atoms: _220  and  _223
REMARK   90  A    between atoms: _223  and  _224
REMARK   91  A    between atoms: _224  and  _225
REMARK   92  A    between atoms: _230  and  _232
REMARK   93  A    between atoms: _232  and  _233
REMARK   94  A    between atoms: _232  and  _235
REMARK   95  A    between atoms: _235  and  _236
REMARK   96  A    between atoms: _236  and  _237
REMARK   97  A    between atoms: _239  and  _241
REMARK   98  A    between atoms: _241  and  _242
REMARK   99  A    between atoms: _241  and  _244
REMARK  100  A    between atoms: _244  and  _245
REMARK  101  A    between atoms: _247  and  _249
REMARK  102  A    between atoms: _249  and  _250
REMARK  103  A    between atoms: _249  and  _252
REMARK  104  A    between atoms: _252  and  _253
REMARK  105  A    between atoms: _256  and  _258
REMARK  106  A    between atoms: _258  and  _259
REMARK  107  A    between atoms: _261  and  _263
REMARK  108  A    between atoms: _263  and  _264
REMARK  109  A    between atoms: _263  and  _266
REMARK  110  A    between atoms: _266  and  _267
REMARK  111  A    between atoms: _267  and  _268
REMARK  112  A    between atoms: _268  and  _269
REMARK  113  A    between atoms: _269  and  _270
REMARK  114  A    between atoms: _274  and  _276
REMARK  115  A    between atoms: _276  and  _277
REMARK  116  A    between atoms: _276  and  _279
REMARK  117  A    between atoms: _279  and  _280
REMARK  118  A    between atoms: _282  and  _284
REMARK  119  A    between atoms: _284  and  _285
REMARK  120  A    between atoms: _284  and  _287
REMARK  121  A    between atoms: _287  and  _288
REMARK  122  A    between atoms: _288  and  _289
REMARK  123  A    between atoms: _292  and  _294
REMARK  124  A    between atoms: _294  and  _295
REMARK  125  A    between atoms: _294  and  _297
REMARK  126  A    between atoms: _297  and  _298
REMARK  127  A    between atoms: _301  and  _303
REMARK  128  A    between atoms: _303  and  _304
REMARK  129  A    between atoms: _307  and  _309
REMARK  130  A    between atoms: _309  and  _310
REMARK  131  A    between atoms: _309  and  _312
REMARK  132  A    between atoms: _312  and  _313
REMARK  133  A    between atoms: _324  and  _325
REMARK  134  A    between atoms: _330  and  _332
REMARK  135  A    between atoms: _332  and  _333
REMARK  136  A    between atoms: _336  and  _338
REMARK  137  A    between atoms: _338  and  _339
REMARK  138  A    between atoms: _338  and  _341
REMARK  139  A    between atoms: _341  and  _342
REMARK  140  A    between atoms: _347  and  _349
REMARK  141  A    between atoms: _349  and  _350
REMARK  142  A    between atoms: _349  and  _352
REMARK  143  A    between atoms: _352  and  _353
REMARK  144  A    between atoms: _358  and  _359
REMARK  145  A    between atoms: _361  and  _363
REMARK  146  A    between atoms: _363  and  _364
REMARK  147  A    between atoms: _367  and  _369
REMARK  148  A    between atoms: _369  and  _370
REMARK  149  A    between atoms: _369  and  _372
REMARK  150  A    between atoms: _372  and  _373
REMARK  151  A    between atoms: _373  and  _374
REMARK  152  A    between atoms: _379  and  _381
REMARK  153  A    between atoms: _381  and  _382
REMARK  154  A    between atoms: _381  and  _384
REMARK  155  A    between atoms: _384  and  _385
REMARK  156  A    between atoms: _385  and  _386
REMARK  157  A    between atoms: _391  and  _393
REMARK  158  A    between atoms: _393  and  _394
REMARK  159  A    between atoms: _393  and  _396
REMARK  160  A    between atoms: _396  and  _397
REMARK  161  A    between atoms: _397  and  _398
REMARK  162  A    between atoms: _400  and  _402
REMARK  163  A    between atoms: _402  and  _403
REMARK  164  A    between atoms: _405  and  _407
REMARK  165  A    between atoms: _407  and  _408
REMARK  166  A    between atoms: _411  and  _413
REMARK  167  A    between atoms: _413  and  _414
REMARK  168  A    between atoms: _413  and  _416
REMARK  169  A    between atoms: _416  and  _417
REMARK  170  A    between atoms: _427  and  _429
REMARK  171  A    between atoms: _429  and  _430
REMARK  172  A    between atoms: _429  and  _432
REMARK  173  A    between atoms: _432  and  _433
REMARK  174  A    between atoms: _433  and  _434
REMARK  175  A    between atoms: _437  and  _439
REMARK  176  A    between atoms: _439  and  _440
REMARK  177  A    between atoms: _442  and  _444
REMARK  178  A    between atoms: _444  and  _445
REMARK  179  A    between atoms: _444  and  _447
REMARK  180  A    between atoms: _450  and  _452
REMARK  181  A    between atoms: _452  and  _453
REMARK  182  A    between atoms: _452  and  _455
REMARK  183  A    between atoms: _455  and  _456
REMARK  184  A    between atoms: _459  and  _461
REMARK  185  A    between atoms: _461  and  _462
REMARK  186  A    between atoms: _461  and  _464
REMARK  187  A    between atoms: _464  and  _465
REMARK  188  A    between atoms: _468  and  _470
REMARK  189  A    between atoms: _470  and  _471
REMARK  190  A    between atoms: _470  and  _473
REMARK  191  A    between atoms: _473  and  _474
REMARK  192  A    between atoms: _474  and  _475
REMARK  193  A    between atoms: _477  and  _479
REMARK  194  A    between atoms: _479  and  _480
REMARK  195  A    between atoms: _482  and  _484
REMARK  196  A    between atoms: _484  and  _485
REMARK  197  A    between atoms: _487  and  _489
REMARK  198  A    between atoms: _489  and  _490
REMARK  199  A    between atoms: _489  and  _492
REMARK  200  A    between atoms: _495  and  _497
REMARK  201  A    between atoms: _497  and  _498
REMARK  202  A    between atoms: _497  and  _500
REMARK  203  A    between atoms: _500  and  _501
REMARK  204  A    between atoms: _504  and  _506
REMARK  205  A    between atoms: _506  and  _507
REMARK  206  A    between atoms: _506  and  _509
REMARK  207  A    between atoms: _509  and  _510
REMARK  208  A    between atoms: _515  and  _516
REMARK  209  A    between atoms: _518  and  _520
REMARK  210  A    between atoms: _520  and  _521
REMARK  211  A    between atoms: _520  and  _523
REMARK  212  A    between atoms: _523  and  _524
REMARK  213  A    between atoms: _529  and  _530
REMARK  214  A    between atoms: _532  and  _534
REMARK  215  A    between atoms: _534  and  _535
REMARK  216  A    between atoms: _538  and  _540
REMARK  217  A    between atoms: _540  and  _541
REMARK  218  A    between atoms: _540  and  _543
REMARK  219  A    between atoms: _543  and  _544
REMARK  220  A    between atoms: _550  and  _552
REMARK  221  A    between atoms: _552  and  _553
REMARK  222  A    between atoms: _552  and  _555
REMARK  223  A    between atoms: _555  and  _556
REMARK  224  A    between atoms: _558  and  _560
REMARK  225  A    between atoms: _560  and  _561
REMARK  226  A    between atoms: _560  and  _563
REMARK  227  A    between atoms: _563  and  _564
REMARK  228  A    between atoms: _567  and  _569
REMARK  229  A    between atoms: _569  and  _570
REMARK  230  A    between atoms: _569  and  _572
REMARK  231  A    between atoms: _572  and  _573
REMARK  232  A    between atoms: _576  and  _578
REMARK  233  A    between atoms: _578  and  _579
REMARK  234  A    between atoms: _578  and  _581
REMARK  235  A    between atoms: _581  and  _582
REMARK  236  A    between atoms: _592  and  _594
REMARK  237  A    between atoms: _594  and  _595
REMARK  238  A    between atoms: _594  and  _597
REMARK  239  A    between atoms: _597  and  _598
REMARK  240  A    between atoms: _598  and  _599
REMARK  241  A    between atoms: _601  and  _603
REMARK  242  A    between atoms: _603  and  _604
REMARK  243  A    between atoms: _603  and  _606
REMARK  244  A    between atoms: _606  and  _607
REMARK  245  A    between atoms: _610  and  _612
REMARK  246  A    between atoms: _612  and  _613
REMARK  247  A    between atoms: _612  and  _615
REMARK  248  A    between atoms: _615  and  _616
REMARK  249  A    between atoms: _619  and  _621
REMARK  250  A    between atoms: _621  and  _622
REMARK  251  A    between atoms: _625  and  _627
REMARK  252  A    between atoms: _627  and  _628
REMARK  253  A    between atoms: _627  and  _630
REMARK  254  A    between atoms: _630  and  _631
REMARK  255  A    between atoms: _634  and  _636
REMARK  256  A    between atoms: _636  and  _637
REMARK  257  A    between atoms: _639  and  _641
REMARK  258  A    between atoms: _641  and  _642
REMARK  259  A    between atoms: _641  and  _644
REMARK  260  A    between atoms: _644  and  _645
REMARK  261  A    between atoms: _650  and  _652
REMARK  262  A    between atoms: _652  and  _653
REMARK  263  A    between atoms: _652  and  _655
REMARK  264  A    between atoms: _655  and  _656
REMARK                            x       y       z     vdW  Elec       q    Type
REMARK                         _______ _______ _______ _____ _____    ______ ____
ROOT
ATOM      1  C   SER A   2      22.438 109.134  13.498  0.00  0.00    +0.243 C 
ATOM      2  N   LEU A   3      23.396 109.288  14.403  0.00  0.00    -0.297 N 
ATOM      3  H   LEU A   3      24.160 108.584  14.461  0.00  0.00    +0.150 HD
ATOM      4  O   SER A   2      21.499 109.920  13.376  0.00  0.00    -0.273 OA
ENDROOT
BRANCH   1   5
ATOM      5  CA  SER A   2      22.560 107.915  12.596  0.00  0.00    +0.178 C 
BRANCH   5   8
ATOM      6  C   MET A   1      20.344 106.952  12.793  0.00  0.00    +0.238 C 
ATOM      7  O   MET A   1      20.520 106.686  13.983  0.00  0.00    -0.274 OA
ATOM      8  N   SER A   2      21.267 107.540  12.042  0.00  0.00    -0.295 N 
ATOM      9  H   SER A   2      21.063 107.736  11.041  0.00  0.00    +0.150 HD
BRANCH   6  10
ATOM     10  CA  MET A   1      19.033 106.603  12.103  0.00  0.00    +0.146 C 
BRANCH  10  11
ATOM     11  N   MET A   1      18.647 105.247  12.453  0.00  0.00    -0.238 NA
ATOM     12  H   MET A   1      17.772 105.092  12.994  0.00  0.00    +0.142 HD
ENDBRANCH  10  11
BRANCH  10  13
ATOM     13  CB  MET A   1      17.945 107.590  12.520  0.00  0.00    +0.038 C 
BRANCH  13  14
ATOM     14  CG  MET A   1      18.147 108.996  11.987  0.00  0.00    +0.060 C 
BRANCH  14  15
ATOM     15  SD  MET A   1      17.055 110.187  12.781  0.00  0.00    -0.139 S 
ATOM     16  CE  MET A   1      17.794 110.303  14.411  0.00  0.00    +0.069 C 
ENDBRANCH  14  15
ENDBRANCH  13  14
ENDBRANCH  10  13
ENDBRANCH   6  10
ENDBRANCH   5   8
BRANCH   5  17
ATOM     17  CB  SER A   2      23.555 108.207  11.478  0.00  0.00    +0.166 C 
BRANCH  17  18
ATOM     18  OG  SER A   2      23.276 109.453  10.861  0.00  0.00    -0.380 OA
ATOM     19  H   SER A   2      22.364 109.433  10.477  0.00  0.00    +0.211 HD
ENDBRANCH  17  18
ENDBRANCH   5  17
ENDBRANCH   1   5
BRANCH   2  20
ATOM     20  CA  LEU A   3      23.400 110.420  15.315  0.00  0.00    +0.149 C 
BRANCH  20  21
ATOM     21  C   LEU A   3      24.109 111.621  14.691  0.00  0.00    +0.241 C 
ATOM     22  O   LEU A   3      23.900 112.761  15.107  0.00  0.00    -0.273 OA
ATOM     23  N   GLY A   4      24.943 111.362  13.689  0.00  0.00    -0.296 N 
ATOM     24  H   GLY A   4      25.153 110.373  13.446  0.00  0.00    +0.150 HD
BRANCH  23  25
ATOM     25  CA  GLY A   4      25.568 112.427  12.926  0.00  0.00    +0.163 C 
BRANCH  25  26
ATOM     26  C   GLY A   4      26.928 112.863  13.438  0.00  0.00    +0.229 C 
ATOM     27  O   GLY A   4      27.207 112.792  14.634  0.00  0.00    -0.286 OA
ENDBRANCH  25  26
ENDBRANCH  23  25
ENDBRANCH  20  21
BRANCH  20  28
ATOM     28  CB  LEU A   3      24.045 110.031  16.644  0.00  0.00    +0.029 C 
BRANCH  28  29
ATOM     29  CG  LEU A   3      23.443 108.797  17.320  0.00  0.00    +0.002 C 
ATOM     30  CD2 LEU A   3      24.141 108.513  18.639  0.00  0.00    +0.000 C 
ATOM     31  CD1 LEU A   3      21.945 108.973  17.527  0.00  0.00    +0.000 C 
ENDBRANCH  28  29
ENDBRANCH  20  28
ENDBRANCH   2  20
TORSDOF 15
REMARK  Name = ../refined-set-2016/4c1t/4c1t_pocket.pdb
REMARK  264 active torsions:
REMARK  status: ('A' for Active; 'I' for Inactive)
REMARK    1  A    between atoms: _1  and  _3
REMARK    2  A    between atoms: _3  and  _4
REMARK    3  A    between atoms: _3  and  _6
REMARK    4  A    between atoms: _6  and  _7
REMARK    5  A    between atoms: _12  and  _14
REMARK    6  A    between atoms: _14  and  _15
REMARK    7  A    between atoms: _14  and  _17
REMARK    8  A    between atoms: _17  and  _18
REMARK    9  A    between atoms: _23  and  _25
REMARK   10  A    between atoms: _25  and  _26
REMARK   11  A    between atoms: _29  and  _31
REMARK   12  A    between atoms: _31  and  _32
REMARK   13  A    between atoms: _31  and  _34
REMARK   14  A    between atoms: _34  and  _35
REMARK   15  A    between atoms: _37  and  _39
REMARK   16  A    between atoms: _39  and  _40
REMARK   17  A    between atoms: _43  and  _45
REMARK   18  A    between atoms: _45  and  _46
REMARK   19  A    between atoms: _48  and  _50
REMARK   20  A    between atoms: _50  and  _51
REMARK   21  A    between atoms: _50  and  _53
REMARK   22  A    between atoms: _53  and  _54
REMARK   23  A    between atoms: _54  and  _55
REMARK   24  A    between atoms: _58  and  _60
REMARK   25  A    between atoms: _60  and  _61
REMARK   26  A    between atoms: _63  and  _65
REMARK   27  A    between atoms: _65  and  _66
REMARK   28  A    between atoms: _65  and  _68
REMARK   29  A    between atoms: _68  and  _69
REMARK   30  A    between atoms: _69  and  _70
REMARK   31  A    between atoms: _70  and  _71
REMARK   32  A    between atoms: _80  and  _82
REMARK   33  A    between atoms: _82  and  _83
REMARK   34  A    between atoms: _82  and  _85
REMARK   35  A    between atoms: _85  and  _86
REMARK   36  A    between atoms: _86  and  _87
REMARK   37  A    between atoms: _92  and  _94
REMARK   38  A    between atoms: _94  and  _95
REMARK   39  A    between atoms: _94  and  _97
REMARK   40  A    between atoms: _97  and  _98
REMARK   41  A    between atoms: _103  and  _104
REMARK   42  A    between atoms: _106  and  _108
REMARK   43  A    between atoms: _108  and  _109
REMARK   44  A    between atoms: _108  and  _111
REMARK   45  A    between atoms: _111  and  _112
REMARK   46  A    between atoms: _122  and  _124
REMARK   47  A    between atoms: _124  and  _125
REMARK   48  A    between atoms: _124  and  _127
REMARK   49  A    between atoms: _127  and  _128
REMARK   50  A    between atoms: _131  and  _133
REMARK   51  A    between atoms: _133  and  _134
REMARK   52  A    between atoms: _133  and  _136
REMARK   53  A    between atoms: _136  and  _137
REMARK   54  A    between atoms: _137  and  _138
REMARK   55  A    between atoms: _143  and  _145
REMARK   56  A    between atoms: _145  and  _146
REMARK   57  A    between atoms: _145  and  _148
REMARK   58  A    between atoms: _148  and  _149
REMARK   59  A    between atoms: _154  and  _156
REMARK   60  A    between atoms: _156  and  _157
REMARK   61  A    between atoms: _156  and  _159
REMARK   62  A    between atoms: _159  and  _160
REMARK   63  A    between atoms: _160  and  _161
REMARK   64  A    between atoms: _164  and  _166
REMARK   65  A    between atoms: _166  and  _167
REMARK   66  A    between atoms: _166  and  _169
REMARK   67  A    between atoms: _169  and  _170
REMARK   68  A    between atoms: _173  and  _175
REMARK   69  A    between atoms: _175  and  _176
REMARK   70  A    between atoms: _175  and  _178
REMARK   71  A    between atoms: _178  and  _179
REMARK   72  A    between atoms: _185  and  _187
REMARK   73  A    between atoms: _187  and  _188
REMARK   74  A    between atoms: _191  and  _193
REMARK   75  A    between atoms: _193  and  _194
REMARK   76  A    between atoms: _196  and  _198
REMARK   77  A    between atoms: _198  and  _199
REMARK   78  A    between atoms: _198  and  _201
REMARK   79  A    between atoms: _201  and  _202
REMARK   80  A    between atoms: _202  and  _203
REMARK   81  A    between atoms: _203  and  _204
REMARK   82  A    between atoms: _204  and  _205
REMARK   83  A    between atoms: _209  and  _211
REMARK   84  A    between atoms: _211  and  _212
REMARK   85  A    between atoms: _211  and  _214
REMARK   86  A    between atoms: _214  and  _215
REMARK   87  A    between atoms: _218  and  _220
REMARK   88  A    between atoms: _220  and  _221
REMARK   89  A    between atoms: _220  and  _223
REMARK   90  A    between atoms: _223  and  _224
REMARK   91  A    between atoms: _224  and  _225
REMARK   92  A    between atoms: _230  and  _232
REMARK   93  A    between atoms: _232  and  _233
REMARK   94  A    between atoms: _232  and  _235
REMARK   95  A    between atoms: _235  and  _236
REMARK   96  A    between atoms: _236  and  _237
REMARK   97  A    between atoms: _239  and  _241
REMARK   98  A    between atoms: _241  and  _242
REMARK   99  A    between atoms: _241  and  _244
REMARK  100  A    between atoms: _244  and  _245
REMARK  101  A    between atoms: _247  and  _249
REMARK  102  A    between atoms: _249  and  _250
REMARK  103  A    between atoms: _249  and  _252
REMARK  104  A    between atoms: _252  and  _253
REMARK  105  A    between atoms: _256  and  _258
REMARK  106  A    between atoms: _258  and  _259
REMARK  107  A    between atoms: _261  and  _263
REMARK  108  A    between atoms: _263  and  _264
REMARK  109  A    between atoms: _263  and  _266
REMARK  110  A    between atoms: _266  and  _267
REMARK  111  A    between atoms: _267  and  _268
REMARK  112  A    between atoms: _268  and  _269
REMARK  113  A    between atoms: _269  and  _270
REMARK  114  A    between atoms: _274  and  _276
REMARK  115  A    between atoms: _276  and  _277
REMARK  116  A    between atoms: _276  and  _279
REMARK  117  A    between atoms: _279  and  _280
REMARK  118  A    between atoms: _282  and  _284
REMARK  119  A    between atoms: _284  and  _285
REMARK  120  A    between atoms: _284  and  _287
REMARK  121  A    between atoms: _287  and  _288
REMARK  122  A    between atoms: _288  and  _289
REMARK  123  A    between atoms: _292  and  _294
REMARK  124  A    between atoms: _294  and  _295
REMARK  125  A    between atoms: _294  and  _297
REMARK  126  A    between atoms: _297  and  _298
REMARK  127  A    between atoms: _301  and  _303
REMARK  128  A    between atoms: _303  and  _304
REMARK  129  A    between atoms: _307  and  _309
REMARK  130  A    between atoms: _309  and  _310
REMARK  131  A    between atoms: _309  and  _312
REMARK  132  A    between atoms: _312  and  _313
REMARK  133  A    between atoms: _324  and  _325
REMARK  134  A    between atoms: _330  and  _332
REMARK  135  A    between atoms: _332  and  _333
REMARK  136  A    between atoms: _336  and  _338
REMARK  137  A    between atoms: _338  and  _339
REMARK  138  A    between atoms: _338  and  _341
REMARK  139  A    between atoms: _341  and  _342
REMARK  140  A    between atoms: _347  and  _349
REMARK  141  A    between atoms: _349  and  _350
REMARK  142  A    between atoms: _349  and  _352
REMARK  143  A    between atoms: _352  and  _353
REMARK  144  A    between atoms: _358  and  _359
REMARK  145  A    between atoms: _361  and  _363
REMARK  146  A    between atoms: _363  and  _364
REMARK  147  A    between atoms: _367  and  _369
REMARK  148  A    between atoms: _369  and  _370
REMARK  149  A    between atoms: _369  and  _372
REMARK  150  A    between atoms: _372  and  _373
REMARK  151  A    between atoms: _373  and  _374
REMARK  152  A    between atoms: _379  and  _381
REMARK  153  A    between atoms: _381  and  _382
REMARK  154  A    between atoms: _381  and  _384
REMARK  155  A    between atoms: _384  and  _385
REMARK  156  A    between atoms: _385  and  _386
REMARK  157  A    between atoms: _391  and  _393
REMARK  158  A    between atoms: _393  and  _394
REMARK  159  A    between atoms: _393  and  _396
REMARK  160  A    between atoms: _396  and  _397
REMARK  161  A    between atoms: _397  and  _398
REMARK  162  A    between atoms: _400  and  _402
REMARK  163  A    between atoms: _402  and  _403
REMARK  164  A    between atoms: _405  and  _407
REMARK  165  A    between atoms: _407  and  _408
REMARK  166  A    between atoms: _411  and  _413
REMARK  167  A    between atoms: _413  and  _414
REMARK  168  A    between atoms: _413  and  _416
REMARK  169  A    between atoms: _416  and  _417
REMARK  170  A    between atoms: _427  and  _429
REMARK  171  A    between atoms: _429  and  _430
REMARK  172  A    between atoms: _429  and  _432
REMARK  173  A    between atoms: _432  and  _433
REMARK  174  A    between atoms: _433  and  _434
REMARK  175  A    between atoms: _437  and  _439
REMARK  176  A    between atoms: _439  and  _440
REMARK  177  A    between atoms: _442  and  _444
REMARK  178  A    between atoms: _444  and  _445
REMARK  179  A    between atoms: _444  and  _447
REMARK  180  A    between atoms: _450  and  _452
REMARK  181  A    between atoms: _452  and  _453
REMARK  182  A    between atoms: _452  and  _455
REMARK  183  A    between atoms: _455  and  _456
REMARK  184  A    between atoms: _459  and  _461
REMARK  185  A    between atoms: _461  and  _462
REMARK  186  A    between atoms: _461  and  _464
REMARK  187  A    between atoms: _464  and  _465
REMARK  188  A    between atoms: _468  and  _470
REMARK  189  A    between atoms: _470  and  _471
REMARK  190  A    between atoms: _470  and  _473
REMARK  191  A    between atoms: _473  and  _474
REMARK  192  A    between atoms: _474  and  _475
REMARK  193  A    between atoms: _477  and  _479
REMARK  194  A    between atoms: _479  and  _480
REMARK  195  A    between atoms: _482  and  _484
REMARK  196  A    between atoms: _484  and  _485
REMARK  197  A    between atoms: _487  and  _489
REMARK  198  A    between atoms: _489  and  _490
REMARK  199  A    between atoms: _489  and  _492
REMARK  200  A    between atoms: _495  and  _497
REMARK  201  A    between atoms: _497  and  _498
REMARK  202  A    between atoms: _497  and  _500
REMARK  203  A    between atoms: _500  and  _501
REMARK  204  A    between atoms: _504  and  _506
REMARK  205  A    between atoms: _506  and  _507
REMARK  206  A    between atoms: _506  and  _509
REMARK  207  A    between atoms: _509  and  _510
REMARK  208  A    between atoms: _515  and  _516
REMARK  209  A    between atoms: _518  and  _520
REMARK  210  A    between atoms: _520  and  _521
REMARK  211  A    between atoms: _520  and  _523
REMARK  212  A    between atoms: _523  and  _524
REMARK  213  A    between atoms: _529  and  _530
REMARK  214  A    between atoms: _532  and  _534
REMARK  215  A    between atoms: _534  and  _535
REMARK  216  A    between atoms: _538  and  _540
REMARK  217  A    between atoms: _540  and  _541
REMARK  218  A    between atoms: _540  and  _543
REMARK  219  A    between atoms: _543  and  _544
REMARK  220  A    between atoms: _550  and  _552
REMARK  221  A    between atoms: _552  and  _553
REMARK  222  A    between atoms: _552  and  _555
REMARK  223  A    between atoms: _555  and  _556
REMARK  224  A    between atoms: _558  and  _560
REMARK  225  A    between atoms: _560  and  _561
REMARK  226  A    between atoms: _560  and  _563
REMARK  227  A    between atoms: _563  and  _564
REMARK  228  A    between atoms: _567  and  _569
REMARK  229  A    between atoms: _569  and  _570
REMARK  230  A    between atoms: _569  and  _572
REMARK  231  A    between atoms: _572  and  _573
REMARK  232  A    between atoms: _576  and  _578
REMARK  233  A    between atoms: _578  and  _579
REMARK  234  A    between atoms: _578  and  _581
REMARK  235  A    between atoms: _581  and  _582
REMARK  236  A    between atoms: _592  and  _594
REMARK  237  A    between atoms: _594  and  _595
REMARK  238  A    between atoms: _594  and  _597
REMARK  239  A    between atoms: _597  and  _598
REMARK  240  A    between atoms: _598  and  _599
REMARK  241  A    between atoms: _601  and  _603
REMARK  242  A    between atoms: _603  and  _604
REMARK  243  A    between atoms: _603  and  _606
REMARK  244  A    between atoms: _606  and  _607
REMARK  245  A    between atoms: _610  and  _612
REMARK  246  A    between atoms: _612  and  _613
REMARK  247  A    between atoms: _612  and  _615
REMARK  248  A    between atoms: _615  and  _616
REMARK  249  A    between atoms: _619  and  _621
REMARK  250  A    between atoms: _621  and  _622
REMARK  251  A    between atoms: _625  and  _627
REMARK  252  A    between atoms: _627  and  _628
REMARK  253  A    between atoms: _627  and  _630
REMARK  254  A    between atoms: _630  and  _631
REMARK  255  A    between atoms: _634  and  _636
REMARK  256  A    between atoms: _636  and  _637
REMARK  257  A    between atoms: _639  and  _641
REMARK  258  A    between atoms: _641  and  _642
REMARK  259  A    between atoms: _641  and  _644
REMARK  260  A    between atoms: _644  and  _645
REMARK  261  A    between atoms: _650  and  _652
REMARK  262  A    between atoms: _652  and  _653
REMARK  263  A    between atoms: _652  and  _655
REMARK  264  A    between atoms: _655  and  _656
REMARK                            x       y       z     vdW  Elec       q    Type
REMARK                         _______ _______ _______ _____ _____    ______ ____
ROOT
ATOM      1  CG  LYS A   1      27.006 112.920  18.471  0.00  0.00    -0.000 C 
ENDROOT
BRANCH   1   2
ATOM      2  CB  LYS A   1      27.023 111.690  17.580  0.00  0.00    +0.025 C 
BRANCH   2   3
ATOM      3  CA  LYS A   1      28.424 111.130  17.324  0.00  0.00    +0.133 C 
BRANCH   3   4
ATOM      4  N   LYS A   1      29.264 112.122  16.660  0.00  0.00    -0.239 NA
ATOM      5  H   LYS A   1      28.828 112.991  16.290  0.00  0.00    +0.142 HD
ENDBRANCH   3   4
BRANCH   3   6
ATOM      6  C   LYS A   1      28.350 109.834  16.515  0.00  0.00    +0.224 C 
ATOM      7  O   LYS A   1      28.249 108.746  17.081  0.00  0.00    -0.287 OA
ENDBRANCH   3   6
ENDBRANCH   2   3
ENDBRANCH   1   2
BRANCH   1   8
ATOM      8  CD  LYS A   1      25.604 113.484  18.624  0.00  0.00    -0.024 C 
BRANCH   8   9
ATOM      9  CE  LYS A   1      25.542 114.489  19.763  0.00  0.00    -0.086 C 
BRANCH   9  10
ATOM     10  NZ  LYS A   1      24.195 115.114  19.886  0.00  0.00    +0.380 N 
ATOM     11  HZ1 LYS A   1      24.199 115.792  20.675  0.00  0.00    -0.089 HD
ATOM     12  HZ2 LYS A   1      23.486 114.375  20.067  0.00  0.00    -0.089 HD
ATOM     13  HZ3 LYS A   1      23.962 115.610  19.002  0.00  0.00    -0.089 HD
ENDBRANCH   9  10
ENDBRANCH   8   9
ENDBRANCH   1   8
TORSDOF 7
REMARK  Name = ../refined-set-2016/4c1t/4c1t_pocket.pdb
REMARK  264 active torsions:
REMARK  status: ('A' for Active; 'I' for Inactive)
REMARK    1  A    between atoms: _1  and  _3
REMARK    2  A    between atoms: _3  and  _4
REMARK    3  A    between atoms: _3  and  _6
REMARK    4  A    between atoms: _6  and  _7
REMARK    5  A    between atoms: _12  and  _14
REMARK    6  A    between atoms: _14  and  _15
REMARK    7  A    between atoms: _14  and  _17
REMARK    8  A    between atoms: _17  and  _18
REMARK    9  A    between atoms: _23  and  _25
REMARK   10  A    between atoms: _25  and  _26
REMARK   11  A    between atoms: _29  and  _31
REMARK   12  A    between atoms: _31  and  _32
REMARK   13  A    between atoms: _31  and  _34
REMARK   14  A    between atoms: _34  and  _35
REMARK   15  A    between atoms: _37  and  _39
REMARK   16  A    between atoms: _39  and  _40
REMARK   17  A    between atoms: _43  and  _45
REMARK   18  A    between atoms: _45  and  _46
REMARK   19  A    between atoms: _48  and  _50
REMARK   20  A    between atoms: _50  and  _51
REMARK   21  A    between atoms: _50  and  _53
REMARK   22  A    between atoms: _53  and  _54
REMARK   23  A    between atoms: _54  and  _55
REMARK   24  A    between atoms: _58  and  _60
REMARK   25  A    between atoms: _60  and  _61
REMARK   26  A    between atoms: _63  and  _65
REMARK   27  A    between atoms: _65  and  _66
REMARK   28  A    between atoms: _65  and  _68
REMARK   29  A    between atoms: _68  and  _69
REMARK   30  A    between atoms: _69  and  _70
REMARK   31  A    between atoms: _70  and  _71
REMARK   32  A    between atoms: _80  and  _82
REMARK   33  A    between atoms: _82  and  _83
REMARK   34  A    between atoms: _82  and  _85
REMARK   35  A    between atoms: _85  and  _86
REMARK   36  A    between atoms: _86  and  _87
REMARK   37  A    between atoms: _92  and  _94
REMARK   38  A    between atoms: _94  and  _95
REMARK   39  A    between atoms: _94  and  _97
REMARK   40  A    between atoms: _97  and  _98
REMARK   41  A    between atoms: _103  and  _104
REMARK   42  A    between atoms: _106  and  _108
REMARK   43  A    between atoms: _108  and  _109
REMARK   44  A    between atoms: _108  and  _111
REMARK   45  A    between atoms: _111  and  _112
REMARK   46  A    between atoms: _122  and  _124
REMARK   47  A    between atoms: _124  and  _125
REMARK   48  A    between atoms: _124  and  _127
REMARK   49  A    between atoms: _127  and  _128
REMARK   50  A    between atoms: _131  and  _133
REMARK   51  A    between atoms: _133  and  _134
REMARK   52  A    between atoms: _133  and  _136
REMARK   53  A    between atoms: _136  and  _137
REMARK   54  A    between atoms: _137  and  _138
REMARK   55  A    between atoms: _143  and  _145
REMARK   56  A    between atoms: _145  and  _146
REMARK   57  A    between atoms: _145  and  _148
REMARK   58  A    between atoms: _148  and  _149
REMARK   59  A    between atoms: _154  and  _156
REMARK   60  A    between atoms: _156  and  _157
REMARK   61  A    between atoms: _156  and  _159
REMARK   62  A    between atoms: _159  and  _160
REMARK   63  A    between atoms: _160  and  _161
REMARK   64  A    between atoms: _164  and  _166
REMARK   65  A    between atoms: _166  and  _167
REMARK   66  A    between atoms: _166  and  _169
REMARK   67  A    between atoms: _169  and  _170
REMARK   68  A    between atoms: _173  and  _175
REMARK   69  A    between atoms: _175  and  _176
REMARK   70  A    between atoms: _175  and  _178
REMARK   71  A    between atoms: _178  and  _179
REMARK   72  A    between atoms: _185  and  _187
REMARK   73  A    between atoms: _187  and  _188
REMARK   74  A    between atoms: _191  and  _193
REMARK   75  A    between atoms: _193  and  _194
REMARK   76  A    between atoms: _196  and  _198
REMARK   77  A    between atoms: _198  and  _199
REMARK   78  A    between atoms: _198  and  _201
REMARK   79  A    between atoms: _201  and  _202
REMARK   80  A    between atoms: _202  and  _203
REMARK   81  A    between atoms: _203  and  _204
REMARK   82  A    between atoms: _204  and  _205
REMARK   83  A    between atoms: _209  and  _211
REMARK   84  A    between atoms: _211  and  _212
REMARK   85  A    between atoms: _211  and  _214
REMARK   86  A    between atoms: _214  and  _215
REMARK   87  A    between atoms: _218  and  _220
REMARK   88  A    between atoms: _220  and  _221
REMARK   89  A    between atoms: _220  and  _223
REMARK   90  A    between atoms: _223  and  _224
REMARK   91  A    between atoms: _224  and  _225
REMARK   92  A    between atoms: _230  and  _232
REMARK   93  A    between atoms: _232  and  _233
REMARK   94  A    between atoms: _232  and  _235
REMARK   95  A    between atoms: _235  and  _236
REMARK   96  A    between atoms: _236  and  _237
REMARK   97  A    between atoms: _239  and  _241
REMARK   98  A    between atoms: _241  and  _242
REMARK   99  A    between atoms: _241  and  _244
REMARK  100  A    between atoms: _244  and  _245
REMARK  101  A    between atoms: _247  and  _249
REMARK  102  A    between atoms: _249  and  _250
REMARK  103  A    between atoms: _249  and  _252
REMARK  104  A    between atoms: _252  and  _253
REMARK  105  A    between atoms: _256  and  _258
REMARK  106  A    between atoms: _258  and  _259
REMARK  107  A    between atoms: _261  and  _263
REMARK  108  A    between atoms: _263  and  _264
REMARK  109  A    between atoms: _263  and  _266
REMARK  110  A    between atoms: _266  and  _267
REMARK  111  A    between atoms: _267  and  _268
REMARK  112  A    between atoms: _268  and  _269
REMARK  113  A    between atoms: _269  and  _270
REMARK  114  A    between atoms: _274  and  _276
REMARK  115  A    between atoms: _276  and  _277
REMARK  116  A    between atoms: _276  and  _279
REMARK  117  A    between atoms: _279  and  _280
REMARK  118  A    between atoms: _282  and  _284
REMARK  119  A    between atoms: _284  and  _285
REMARK  120  A    between atoms: _284  and  _287
REMARK  121  A    between atoms: _287  and  _288
REMARK  122  A    between atoms: _288  and  _289
REMARK  123  A    between atoms: _292  and  _294
REMARK  124  A    between atoms: _294  and  _295
REMARK  125  A    between atoms: _294  and  _297
REMARK  126  A    between atoms: _297  and  _298
REMARK  127  A    between atoms: _301  and  _303
REMARK  128  A    between atoms: _303  and  _304
REMARK  129  A    between atoms: _307  and  _309
REMARK  130  A    between atoms: _309  and  _310
REMARK  131  A    between atoms: _309  and  _312
REMARK  132  A    between atoms: _312  and  _313
REMARK  133  A    between atoms: _324  and  _325
REMARK  134  A    between atoms: _330  and  _332
REMARK  135  A    between atoms: _332  and  _333
REMARK  136  A    between atoms: _336  and  _338
REMARK  137  A    between atoms: _338  and  _339
REMARK  138  A    between atoms: _338  and  _341
REMARK  139  A    between atoms: _341  and  _342
REMARK  140  A    between atoms: _347  and  _349
REMARK  141  A    between atoms: _349  and  _350
REMARK  142  A    between atoms: _349  and  _352
REMARK  143  A    between atoms: _352  and  _353
REMARK  144  A    between atoms: _358  and  _359
REMARK  145  A    between atoms: _361  and  _363
REMARK  146  A    between atoms: _363  and  _364
REMARK  147  A    between atoms: _367  and  _369
REMARK  148  A    between atoms: _369  and  _370
REMARK  149  A    between atoms: _369  and  _372
REMARK  150  A    between atoms: _372  and  _373
REMARK  151  A    between atoms: _373  and  _374
REMARK  152  A    between atoms: _379  and  _381
REMARK  153  A    between atoms: _381  and  _382
REMARK  154  A    between atoms: _381  and  _384
REMARK  155  A    between atoms: _384  and  _385
REMARK  156  A    between atoms: _385  and  _386
REMARK  157  A    between atoms: _391  and  _393
REMARK  158  A    between atoms: _393  and  _394
REMARK  159  A    between atoms: _393  and  _396
REMARK  160  A    between atoms: _396  and  _397
REMARK  161  A    between atoms: _397  and  _398
REMARK  162  A    between atoms: _400  and  _402
REMARK  163  A    between atoms: _402  and  _403
REMARK  164  A    between atoms: _405  and  _407
REMARK  165  A    between atoms: _407  and  _408
REMARK  166  A    between atoms: _411  and  _413
REMARK  167  A    between atoms: _413  and  _414
REMARK  168  A    between atoms: _413  and  _416
REMARK  169  A    between atoms: _416  and  _417
REMARK  170  A    between atoms: _427  and  _429
REMARK  171  A    between atoms: _429  and  _430
REMARK  172  A    between atoms: _429  and  _432
REMARK  173  A    between atoms: _432  and  _433
REMARK  174  A    between atoms: _433  and  _434
REMARK  175  A    between atoms: _437  and  _439
REMARK  176  A    between atoms: _439  and  _440
REMARK  177  A    between atoms: _442  and  _444
REMARK  178  A    between atoms: _444  and  _445
REMARK  179  A    between atoms: _444  and  _447
REMARK  180  A    between atoms: _450  and  _452
REMARK  181  A    between atoms: _452  and  _453
REMARK  182  A    between atoms: _452  and  _455
REMARK  183  A    between atoms: _455  and  _456
REMARK  184  A    between atoms: _459  and  _461
REMARK  185  A    between atoms: _461  and  _462
REMARK  186  A    between atoms: _461  and  _464
REMARK  187  A    between atoms: _464  and  _465
REMARK  188  A    between atoms: _468  and  _470
REMARK  189  A    between atoms: _470  and  _471
REMARK  190  A    between atoms: _470  and  _473
REMARK  191  A    between atoms: _473  and  _474
REMARK  192  A    between atoms: _474  and  _475
REMARK  193  A    between atoms: _477  and  _479
REMARK  194  A    between atoms: _479  and  _480
REMARK  195  A    between atoms: _482  and  _484
REMARK  196  A    between atoms: _484  and  _485
REMARK  197  A    between atoms: _487  and  _489
REMARK  198  A    between atoms: _489  and  _490
REMARK  199  A    between atoms: _489  and  _492
REMARK  200  A    between atoms: _495  and  _497
REMARK  201  A    between atoms: _497  and  _498
REMARK  202  A    between atoms: _497  and  _500
REMARK  203  A    between atoms: _500  and  _501
REMARK  204  A    between atoms: _504  and  _506
REMARK  205  A    between atoms: _506  and  _507
REMARK  206  A    between atoms: _506  and  _509
REMARK  207  A    between atoms: _509  and  _510
REMARK  208  A    between atoms: _515  and  _516
REMARK  209  A    between atoms: _518  and  _520
REMARK  210  A    between atoms: _520  and  _521
REMARK  211  A    between atoms: _520  and  _523
REMARK  212  A    between atoms: _523  and  _524
REMARK  213  A    between atoms: _529  and  _530
REMARK  214  A    between atoms: _532  and  _534
REMARK  215  A    between atoms: _534  and  _535
REMARK  216  A    between atoms: _538  and  _540
REMARK  217  A    between atoms: _540  and  _541
REMARK  218  A    between atoms: _540  and  _543
REMARK  219  A    between atoms: _543  and  _544
REMARK  220  A    between atoms: _550  and  _552
REMARK  221  A    between atoms: _552  and  _553
REMARK  222  A    between atoms: _552  and  _555
REMARK  223  A    between atoms: _555  and  _556
REMARK  224  A    between atoms: _558  and  _560
REMARK  225  A    between atoms: _560  and  _561
REMARK  226  A    between atoms: _560  and  _563
REMARK  227  A    between atoms: _563  and  _564
REMARK  228  A    between atoms: _567  and  _569
REMARK  229  A    between atoms: _569  and  _570
REMARK  230  A    between atoms: _569  and  _572
REMARK  231  A    between atoms: _572  and  _573
REMARK  232  A    between atoms: _576  and  _578
REMARK  233  A    between atoms: _578  and  _579
REMARK  234  A    between atoms: _578  and  _581
REMARK  235  A    between atoms: _581  and  _582
REMARK  236  A    between atoms: _592  and  _594
REMARK  237  A    between atoms: _594  and  _595
REMARK  238  A    between atoms: _594  and  _597
REMARK  239  A    between atoms: _597  and  _598
REMARK  240  A    between atoms: _598  and  _599
REMARK  241  A    between atoms: _601  and  _603
REMARK  242  A    between atoms: _603  and  _604
REMARK  243  A    between atoms: _603  and  _606
REMARK  244  A    between atoms: _606  and  _607
REMARK  245  A    between atoms: _610  and  _612
REMARK  246  A    between atoms: _612  and  _613
REMARK  247  A    between atoms: _612  and  _615
REMARK  248  A    between atoms: _615  and  _616
REMARK  249  A    between atoms: _619  and  _621
REMARK  250  A    between atoms: _621  and  _622
REMARK  251  A    between atoms: _625  and  _627
REMARK  252  A    between atoms: _627  and  _628
REMARK  253  A    between atoms: _627  and  _630
REMARK  254  A    between atoms: _630  and  _631
REMARK  255  A    between atoms: _634  and  _636
REMARK  256  A    between atoms: _636  and  _637
REMARK  257  A    between atoms: _639  and  _641
REMARK  258  A    between atoms: _641  and  _642
REMARK  259  A    between atoms: _641  and  _644
REMARK  260  A    between atoms: _644  and  _645
REMARK  261  A    between atoms: _650  and  _652
REMARK  262  A    between atoms: _652  and  _653
REMARK  263  A    between atoms: _652  and  _655
REMARK  264  A    between atoms: _655  and  _656
REMARK                            x       y       z     vdW  Elec       q    Type
REMARK                         _______ _______ _______ _____ _____    ______ ____
ROOT
ATOM      1  CA  SER A   1      17.368 114.157   3.558  0.00  0.00    +0.163 C 
ENDROOT
BRANCH   1   2
ATOM      2  N   SER A   1      17.720 112.744   3.594  0.00  0.00    -0.237 NA
ATOM      3  H   SER A   1      18.508 112.432   4.197  0.00  0.00    +0.142 HD
ENDBRANCH   1   2
BRANCH   1   4
ATOM      4  CB  SER A   1      18.542 115.043   3.961  0.00  0.00    +0.227 C 
ATOM      5  OG  SER A   1      19.394 114.647   4.759  0.00  0.00    -0.287 OA
ENDBRANCH   1   4
BRANCH   1   6
ATOM      6  C   SER A   1      16.174 114.442   4.473  0.00  0.00    +0.162 C 
BRANCH   6   7
ATOM      7  O   SER A   1      16.499 114.201   5.832  0.00  0.00    -0.380 OA
ATOM      8  H   SER A   1      17.250 114.788   6.100  0.00  0.00    +0.211 HD
ENDBRANCH   6   7
ENDBRANCH   1   6
TORSDOF 4
REMARK  Name = ../refined-set-2016/4c1t/4c1t_pocket.pdb
REMARK  264 active torsions:
REMARK  status: ('A' for Active; 'I' for Inactive)
REMARK    1  A    between atoms: _1  and  _3
REMARK    2  A    between atoms: _3  and  _4
REMARK    3  A    between atoms: _3  and  _6
REMARK    4  A    between atoms: _6  and  _7
REMARK    5  A    between atoms: _12  and  _14
REMARK    6  A    between atoms: _14  and  _15
REMARK    7  A    between atoms: _14  and  _17
REMARK    8  A    between atoms: _17  and  _18
REMARK    9  A    between atoms: _23  and  _25
REMARK   10  A    between atoms: _25  and  _26
REMARK   11  A    between atoms: _29  and  _31
REMARK   12  A    between atoms: _31  and  _32
REMARK   13  A    between atoms: _31  and  _34
REMARK   14  A    between atoms: _34  and  _35
REMARK   15  A    between atoms: _37  and  _39
REMARK   16  A    between atoms: _39  and  _40
REMARK   17  A    between atoms: _43  and  _45
REMARK   18  A    between atoms: _45  and  _46
REMARK   19  A    between atoms: _48  and  _50
REMARK   20  A    between atoms: _50  and  _51
REMARK   21  A    between atoms: _50  and  _53
REMARK   22  A    between atoms: _53  and  _54
REMARK   23  A    between atoms: _54  and  _55
REMARK   24  A    between atoms: _58  and  _60
REMARK   25  A    between atoms: _60  and  _61
REMARK   26  A    between atoms: _63  and  _65
REMARK   27  A    between atoms: _65  and  _66
REMARK   28  A    between atoms: _65  and  _68
REMARK   29  A    between atoms: _68  and  _69
REMARK   30  A    between atoms: _69  and  _70
REMARK   31  A    between atoms: _70  and  _71
REMARK   32  A    between atoms: _80  and  _82
REMARK   33  A    between atoms: _82  and  _83
REMARK   34  A    between atoms: _82  and  _85
REMARK   35  A    between atoms: _85  and  _86
REMARK   36  A    between atoms: _86  and  _87
REMARK   37  A    between atoms: _92  and  _94
REMARK   38  A    between atoms: _94  and  _95
REMARK   39  A    between atoms: _94  and  _97
REMARK   40  A    between atoms: _97  and  _98
REMARK   41  A    between atoms: _103  and  _104
REMARK   42  A    between atoms: _106  and  _108
REMARK   43  A    between atoms: _108  and  _109
REMARK   44  A    between atoms: _108  and  _111
REMARK   45  A    between atoms: _111  and  _112
REMARK   46  A    between atoms: _122  and  _124
REMARK   47  A    between atoms: _124  and  _125
REMARK   48  A    between atoms: _124  and  _127
REMARK   49  A    between atoms: _127  and  _128
REMARK   50  A    between atoms: _131  and  _133
REMARK   51  A    between atoms: _133  and  _134
REMARK   52  A    between atoms: _133  and  _136
REMARK   53  A    between atoms: _136  and  _137
REMARK   54  A    between atoms: _137  and  _138
REMARK   55  A    between atoms: _143  and  _145
REMARK   56  A    between atoms: _145  and  _146
REMARK   57  A    between atoms: _145  and  _148
REMARK   58  A    between atoms: _148  and  _149
REMARK   59  A    between atoms: _154  and  _156
REMARK   60  A    between atoms: _156  and  _157
REMARK   61  A    between atoms: _156  and  _159
REMARK   62  A    between atoms: _159  and  _160
REMARK   63  A    between atoms: _160  and  _161
REMARK   64  A    between atoms: _164  and  _166
REMARK   65  A    between atoms: _166  and  _167
REMARK   66  A    between atoms: _166  and  _169
REMARK   67  A    between atoms: _169  and  _170
REMARK   68  A    between atoms: _173  and  _175
REMARK   69  A    between atoms: _175  and  _176
REMARK   70  A    between atoms: _175  and  _178
REMARK   71  A    between atoms: _178  and  _179
REMARK   72  A    between atoms: _185  and  _187
REMARK   73  A    between atoms: _187  and  _188
REMARK   74  A    between atoms: _191  and  _193
REMARK   75  A    between atoms: _193  and  _194
REMARK   76  A    between atoms: _196  and  _198
REMARK   77  A    between atoms: _198  and  _199
REMARK   78  A    between atoms: _198  and  _201
REMARK   79  A    between atoms: _201  and  _202
REMARK   80  A    between atoms: _202  and  _203
REMARK   81  A    between atoms: _203  and  _204
REMARK   82  A    between atoms: _204  and  _205
REMARK   83  A    between atoms: _209  and  _211
REMARK   84  A    between atoms: _211  and  _212
REMARK   85  A    between atoms: _211  and  _214
REMARK   86  A    between atoms: _214  and  _215
REMARK   87  A    between atoms: _218  and  _220
REMARK   88  A    between atoms: _220  and  _221
REMARK   89  A    between atoms: _220  and  _223
REMARK   90  A    between atoms: _223  and  _224
REMARK   91  A    between atoms: _224  and  _225
REMARK   92  A    between atoms: _230  and  _232
REMARK   93  A    between atoms: _232  and  _233
REMARK   94  A    between atoms: _232  and  _235
REMARK   95  A    between atoms: _235  and  _236
REMARK   96  A    between atoms: _236  and  _237
REMARK   97  A    between atoms: _239  and  _241
REMARK   98  A    between atoms: _241  and  _242
REMARK   99  A    between atoms: _241  and  _244
REMARK  100  A    between atoms: _244  and  _245
REMARK  101  A    between atoms: _247  and  _249
REMARK  102  A    between atoms: _249  and  _250
REMARK  103  A    between atoms: _249  and  _252
REMARK  104  A    between atoms: _252  and  _253
REMARK  105  A    between atoms: _256  and  _258
REMARK  106  A    between atoms: _258  and  _259
REMARK  107  A    between atoms: _261  and  _263
REMARK  108  A    between atoms: _263  and  _264
REMARK  109  A    between atoms: _263  and  _266
REMARK  110  A    between atoms: _266  and  _267
REMARK  111  A    between atoms: _267  and  _268
REMARK  112  A    between atoms: _268  and  _269
REMARK  113  A    between atoms: _269  and  _270
REMARK  114  A    between atoms: _274  and  _276
REMARK  115  A    between atoms: _276  and  _277
REMARK  116  A    between atoms: _276  and  _279
REMARK  117  A    between atoms: _279  and  _280
REMARK  118  A    between atoms: _282  and  _284
REMARK  119  A    between atoms: _284  and  _285
REMARK  120  A    between atoms: _284  and  _287
REMARK  121  A    between atoms: _287  and  _288
REMARK  122  A    between atoms: _288  and  _289
REMARK  123  A    between atoms: _292  and  _294
REMARK  124  A    between atoms: _294  and  _295
REMARK  125  A    between atoms: _294  and  _297
REMARK  126  A    between atoms: _297  and  _298
REMARK  127  A    between atoms: _301  and  _303
REMARK  128  A    between atoms: _303  and  _304
REMARK  129  A    between atoms: _307  and  _309
REMARK  130  A    between atoms: _309  and  _310
REMARK  131  A    between atoms: _309  and  _312
REMARK  132  A    between atoms: _312  and  _313
REMARK  133  A    between atoms: _324  and  _325
REMARK  134  A    between atoms: _330  and  _332
REMARK  135  A    between atoms: _332  and  _333
REMARK  136  A    between atoms: _336  and  _338
REMARK  137  A    between atoms: _338  and  _339
REMARK  138  A    between atoms: _338  and  _341
REMARK  139  A    between atoms: _341  and  _342
REMARK  140  A    between atoms: _347  and  _349
REMARK  141  A    between atoms: _349  and  _350
REMARK  142  A    between atoms: _349  and  _352
REMARK  143  A    between atoms: _352  and  _353
REMARK  144  A    between atoms: _358  and  _359
REMARK  145  A    between atoms: _361  and  _363
REMARK  146  A    between atoms: _363  and  _364
REMARK  147  A    between atoms: _367  and  _369
REMARK  148  A    between atoms: _369  and  _370
REMARK  149  A    between atoms: _369  and  _372
REMARK  150  A    between atoms: _372  and  _373
REMARK  151  A    between atoms: _373  and  _374
REMARK  152  A    between atoms: _379  and  _381
REMARK  153  A    between atoms: _381  and  _382
REMARK  154  A    between atoms: _381  and  _384
REMARK  155  A    between atoms: _384  and  _385
REMARK  156  A    between atoms: _385  and  _386
REMARK  157  A    between atoms: _391  and  _393
REMARK  158  A    between atoms: _393  and  _394
REMARK  159  A    between atoms: _393  and  _396
REMARK  160  A    between atoms: _396  and  _397
REMARK  161  A    between atoms: _397  and  _398
REMARK  162  A    between atoms: _400  and  _402
REMARK  163  A    between atoms: _402  and  _403
REMARK  164  A    between atoms: _405  and  _407
REMARK  165  A    between atoms: _407  and  _408
REMARK  166  A    between atoms: _411  and  _413
REMARK  167  A    between atoms: _413  and  _414
REMARK  168  A    between atoms: _413  and  _416
REMARK  169  A    between atoms: _416  and  _417
REMARK  170  A    between atoms: _427  and  _429
REMARK  171  A    between atoms: _429  and  _430
REMARK  172  A    between atoms: _429  and  _432
REMARK  173  A    between atoms: _432  and  _433
REMARK  174  A    between atoms: _433  and  _434
REMARK  175  A    between atoms: _437  and  _439
REMARK  176  A    between atoms: _439  and  _440
REMARK  177  A    between atoms: _442  and  _444
REMARK  178  A    between atoms: _444  and  _445
REMARK  179  A    between atoms: _444  and  _447
REMARK  180  A    between atoms: _450  and  _452
REMARK  181  A    between atoms: _452  and  _453
REMARK  182  A    between atoms: _452  and  _455
REMARK  183  A    between atoms: _455  and  _456
REMARK  184  A    between atoms: _459  and  _461
REMARK  185  A    between atoms: _461  and  _462
REMARK  186  A    between atoms: _461  and  _464
REMARK  187  A    between atoms: _464  and  _465
REMARK  188  A    between atoms: _468  and  _470
REMARK  189  A    between atoms: _470  and  _471
REMARK  190  A    between atoms: _470  and  _473
REMARK  191  A    between atoms: _473  and  _474
REMARK  192  A    between atoms: _474  and  _475
REMARK  193  A    between atoms: _477  and  _479
REMARK  194  A    between atoms: _479  and  _480
REMARK  195  A    between atoms: _482  and  _484
REMARK  196  A    between atoms: _484  and  _485
REMARK  197  A    between atoms: _487  and  _489
REMARK  198  A    between atoms: _489  and  _490
REMARK  199  A    between atoms: _489  and  _492
REMARK  200  A    between atoms: _495  and  _497
REMARK  201  A    between atoms: _497  and  _498
REMARK  202  A    between atoms: _497  and  _500
REMARK  203  A    between atoms: _500  and  _501
REMARK  204  A    between atoms: _504  and  _506
REMARK  205  A    between atoms: _506  and  _507
REMARK  206  A    between atoms: _506  and  _509
REMARK  207  A    between atoms: _509  and  _510
REMARK  208  A    between atoms: _515  and  _516
REMARK  209  A    between atoms: _518  and  _520
REMARK  210  A    between atoms: _520  and  _521
REMARK  211  A    between atoms: _520  and  _523
REMARK  212  A    between atoms: _523  and  _524
REMARK  213  A    between atoms: _529  and  _530
REMARK  214  A    between atoms: _532  and  _534
REMARK  215  A    between atoms: _534  and  _535
REMARK  216  A    between atoms: _538  and  _540
REMARK  217  A    between atoms: _540  and  _541
REMARK  218  A    between atoms: _540  and  _543
REMARK  219  A    between atoms: _543  and  _544
REMARK  220  A    between atoms: _550  and  _552
REMARK  221  A    between atoms: _552  and  _553
REMARK  222  A    between atoms: _552  and  _555
REMARK  223  A    between atoms: _555  and  _556
REMARK  224  A    between atoms: _558  and  _560
REMARK  225  A    between atoms: _560  and  _561
REMARK  226  A    between atoms: _560  and  _563
REMARK  227  A    between atoms: _563  and  _564
REMARK  228  A    between atoms: _567  and  _569
REMARK  229  A    between atoms: _569  and  _570
REMARK  230  A    between atoms: _569  and  _572
REMARK  231  A    between atoms: _572  and  _573
REMARK  232  A    between atoms: _576  and  _578
REMARK  233  A    between atoms: _578  and  _579
REMARK  234  A    between atoms: _578  and  _581
REMARK  235  A    between atoms: _581  and  _582
REMARK  236  A    between atoms: _592  and  _594
REMARK  237  A    between atoms: _594  and  _595
REMARK  238  A    between atoms: _594  and  _597
REMARK  239  A    between atoms: _597  and  _598
REMARK  240  A    between atoms: _598  and  _599
REMARK  241  A    between atoms: _601  and  _603
REMARK  242  A    between atoms: _603  and  _604
REMARK  243  A    between atoms: _603  and  _606
REMARK  244  A    between atoms: _606  and  _607
REMARK  245  A    between atoms: _610  and  _612
REMARK  246  A    between atoms: _612  and  _613
REMARK  247  A    between atoms: _612  and  _615
REMARK  248  A    between atoms: _615  and  _616
REMARK  249  A    between atoms: _619  and  _621
REMARK  250  A    between atoms: _621  and  _622
REMARK  251  A    between atoms: _625  and  _627
REMARK  252  A    between atoms: _627  and  _628
REMARK  253  A    between atoms: _627  and  _630
REMARK  254  A    between atoms: _630  and  _631
REMARK  255  A    between atoms: _634  and  _636
REMARK  256  A    between atoms: _636  and  _637
REMARK  257  A    between atoms: _639  and  _641
REMARK  258  A    between atoms: _641  and  _642
REMARK  259  A    between atoms: _641  and  _644
REMARK  260  A    between atoms: _644  and  _645
REMARK  261  A    between atoms: _650  and  _652
REMARK  262  A    between atoms: _652  and  _653
REMARK  263  A    between atoms: _652  and  _655
REMARK  264  A    between atoms: _655  and  _656
REMARK                            x       y       z     vdW  Elec       q    Type
REMARK                         _______ _______ _______ _____ _____    ______ ____
ROOT
ATOM      1  CA  GLU A   1      18.247 119.893   6.213  0.00  0.00    +0.134 C 
ENDROOT
BRANCH   1   2
ATOM      2  N   GLU A   1      19.055 118.876   5.558  0.00  0.00    -0.239 NA
ATOM      3  H   GLU A   1      19.869 118.464   6.057  0.00  0.00    +0.142 HD
ENDBRANCH   1   2
BRANCH   1   4
ATOM      4  C   GLU A   1      19.068 121.014   6.839  0.00  0.00    +0.224 C 
ATOM      5  O   GLU A   1      19.422 120.950   8.016  0.00  0.00    -0.287 OA
ENDBRANCH   1   4
BRANCH   1   6
ATOM      6  CB  GLU A   1      17.335 119.239   7.251  0.00  0.00    +0.037 C 
BRANCH   6   7
ATOM      7  CG  GLU A   1      16.153 118.523   6.626  0.00  0.00    +0.116 C 
BRANCH   7   8
ATOM      8  CD  GLU A   1      15.683 117.332   7.435  0.00  0.00    +0.365 C 
ATOM      9  OE2 GLU A   1      16.300 117.034   8.478  0.00  0.00    -0.246 OA
ATOM     10  OE1 GLU A   1      14.693 116.692   7.025  0.00  0.00    -0.246 OA
ENDBRANCH   7   8
ENDBRANCH   6   7
ENDBRANCH   1   6
TORSDOF 5
REMARK  Name = ../refined-set-2016/4c1t/4c1t_pocket.pdb
REMARK  264 active torsions:
REMARK  status: ('A' for Active; 'I' for Inactive)
REMARK    1  A    between atoms: _1  and  _3
REMARK    2  A    between atoms: _3  and  _4
REMARK    3  A    between atoms: _3  and  _6
REMARK    4  A    between atoms: _6  and  _7
REMARK    5  A    between atoms: _12  and  _14
REMARK    6  A    between atoms: _14  and  _15
REMARK    7  A    between atoms: _14  and  _17
REMARK    8  A    between atoms: _17  and  _18
REMARK    9  A    between atoms: _23  and  _25
REMARK   10  A    between atoms: _25  and  _26
REMARK   11  A    between atoms: _29  and  _31
REMARK   12  A    between atoms: _31  and  _32
REMARK   13  A    between atoms: _31  and  _34
REMARK   14  A    between atoms: _34  and  _35
REMARK   15  A    between atoms: _37  and  _39
REMARK   16  A    between atoms: _39  and  _40
REMARK   17  A    between atoms: _43  and  _45
REMARK   18  A    between atoms: _45  and  _46
REMARK   19  A    between atoms: _48  and  _50
REMARK   20  A    between atoms: _50  and  _51
REMARK   21  A    between atoms: _50  and  _53
REMARK   22  A    between atoms: _53  and  _54
REMARK   23  A    between atoms: _54  and  _55
REMARK   24  A    between atoms: _58  and  _60
REMARK   25  A    between atoms: _60  and  _61
REMARK   26  A    between atoms: _63  and  _65
REMARK   27  A    between atoms: _65  and  _66
REMARK   28  A    between atoms: _65  and  _68
REMARK   29  A    between atoms: _68  and  _69
REMARK   30  A    between atoms: _69  and  _70
REMARK   31  A    between atoms: _70  and  _71
REMARK   32  A    between atoms: _80  and  _82
REMARK   33  A    between atoms: _82  and  _83
REMARK   34  A    between atoms: _82  and  _85
REMARK   35  A    between atoms: _85  and  _86
REMARK   36  A    between atoms: _86  and  _87
REMARK   37  A    between atoms: _92  and  _94
REMARK   38  A    between atoms: _94  and  _95
REMARK   39  A    between atoms: _94  and  _97
REMARK   40  A    between atoms: _97  and  _98
REMARK   41  A    between atoms: _103  and  _104
REMARK   42  A    between atoms: _106  and  _108
REMARK   43  A    between atoms: _108  and  _109
REMARK   44  A    between atoms: _108  and  _111
REMARK   45  A    between atoms: _111  and  _112
REMARK   46  A    between atoms: _122  and  _124
REMARK   47  A    between atoms: _124  and  _125
REMARK   48  A    between atoms: _124  and  _127
REMARK   49  A    between atoms: _127  and  _128
REMARK   50  A    between atoms: _131  and  _133
REMARK   51  A    between atoms: _133  and  _134
REMARK   52  A    between atoms: _133  and  _136
REMARK   53  A    between atoms: _136  and  _137
REMARK   54  A    between atoms: _137  and  _138
REMARK   55  A    between atoms: _143  and  _145
REMARK   56  A    between atoms: _145  and  _146
REMARK   57  A    between atoms: _145  and  _148
REMARK   58  A    between atoms: _148  and  _149
REMARK   59  A    between atoms: _154  and  _156
REMARK   60  A    between atoms: _156  and  _157
REMARK   61  A    between atoms: _156  and  _159
REMARK   62  A    between atoms: _159  and  _160
REMARK   63  A    between atoms: _160  and  _161
REMARK   64  A    between atoms: _164  and  _166
REMARK   65  A    between atoms: _166  and  _167
REMARK   66  A    between atoms: _166  and  _169
REMARK   67  A    between atoms: _169  and  _170
REMARK   68  A    between atoms: _173  and  _175
REMARK   69  A    between atoms: _175  and  _176
REMARK   70  A    between atoms: _175  and  _178
REMARK   71  A    between atoms: _178  and  _179
REMARK   72  A    between atoms: _185  and  _187
REMARK   73  A    between atoms: _187  and  _188
REMARK   74  A    between atoms: _191  and  _193
REMARK   75  A    between atoms: _193  and  _194
REMARK   76  A    between atoms: _196  and  _198
REMARK   77  A    between atoms: _198  and  _199
REMARK   78  A    between atoms: _198  and  _201
REMARK   79  A    between atoms: _201  and  _202
REMARK   80  A    between atoms: _202  and  _203
REMARK   81  A    between atoms: _203  and  _204
REMARK   82  A    between atoms: _204  and  _205
REMARK   83  A    between atoms: _209  and  _211
REMARK   84  A    between atoms: _211  and  _212
REMARK   85  A    between atoms: _211  and  _214
REMARK   86  A    between atoms: _214  and  _215
REMARK   87  A    between atoms: _218  and  _220
REMARK   88  A    between atoms: _220  and  _221
REMARK   89  A    between atoms: _220  and  _223
REMARK   90  A    between atoms: _223  and  _224
REMARK   91  A    between atoms: _224  and  _225
REMARK   92  A    between atoms: _230  and  _232
REMARK   93  A    between atoms: _232  and  _233
REMARK   94  A    between atoms: _232  and  _235
REMARK   95  A    between atoms: _235  and  _236
REMARK   96  A    between atoms: _236  and  _237
REMARK   97  A    between atoms: _239  and  _241
REMARK   98  A    between atoms: _241  and  _242
REMARK   99  A    between atoms: _241  and  _244
REMARK  100  A    between atoms: _244  and  _245
REMARK  101  A    between atoms: _247  and  _249
REMARK  102  A    between atoms: _249  and  _250
REMARK  103  A    between atoms: _249  and  _252
REMARK  104  A    between atoms: _252  and  _253
REMARK  105  A    between atoms: _256  and  _258
REMARK  106  A    between atoms: _258  and  _259
REMARK  107  A    between atoms: _261  and  _263
REMARK  108  A    between atoms: _263  and  _264
REMARK  109  A    between atoms: _263  and  _266
REMARK  110  A    between atoms: _266  and  _267
REMARK  111  A    between atoms: _267  and  _268
REMARK  112  A    between atoms: _268  and  _269
REMARK  113  A    between atoms: _269  and  _270
REMARK  114  A    between atoms: _274  and  _276
REMARK  115  A    between atoms: _276  and  _277
REMARK  116  A    between atoms: _276  and  _279
REMARK  117  A    between atoms: _279  and  _280
REMARK  118  A    between atoms: _282  and  _284
REMARK  119  A    between atoms: _284  and  _285
REMARK  120  A    between atoms: _284  and  _287
REMARK  121  A    between atoms: _287  and  _288
REMARK  122  A    between atoms: _288  and  _289
REMARK  123  A    between atoms: _292  and  _294
REMARK  124  A    between atoms: _294  and  _295
REMARK  125  A    between atoms: _294  and  _297
REMARK  126  A    between atoms: _297  and  _298
REMARK  127  A    between atoms: _301  and  _303
REMARK  128  A    between atoms: _303  and  _304
REMARK  129  A    between atoms: _307  and  _309
REMARK  130  A    between atoms: _309  and  _310
REMARK  131  A    between atoms: _309  and  _312
REMARK  132  A    between atoms: _312  and  _313
REMARK  133  A    between atoms: _324  and  _325
REMARK  134  A    between atoms: _330  and  _332
REMARK  135  A    between atoms: _332  and  _333
REMARK  136  A    between atoms: _336  and  _338
REMARK  137  A    between atoms: _338  and  _339
REMARK  138  A    between atoms: _338  and  _341
REMARK  139  A    between atoms: _341  and  _342
REMARK  140  A    between atoms: _347  and  _349
REMARK  141  A    between atoms: _349  and  _350
REMARK  142  A    between atoms: _349  and  _352
REMARK  143  A    between atoms: _352  and  _353
REMARK  144  A    between atoms: _358  and  _359
REMARK  145  A    between atoms: _361  and  _363
REMARK  146  A    between atoms: _363  and  _364
REMARK  147  A    between atoms: _367  and  _369
REMARK  148  A    between atoms: _369  and  _370
REMARK  149  A    between atoms: _369  and  _372
REMARK  150  A    between atoms: _372  and  _373
REMARK  151  A    between atoms: _373  and  _374
REMARK  152  A    between atoms: _379  and  _381
REMARK  153  A    between atoms: _381  and  _382
REMARK  154  A    between atoms: _381  and  _384
REMARK  155  A    between atoms: _384  and  _385
REMARK  156  A    between atoms: _385  and  _386
REMARK  157  A    between atoms: _391  and  _393
REMARK  158  A    between atoms: _393  and  _394
REMARK  159  A    between atoms: _393  and  _396
REMARK  160  A    between atoms: _396  and  _397
REMARK  161  A    between atoms: _397  and  _398
REMARK  162  A    between atoms: _400  and  _402
REMARK  163  A    between atoms: _402  and  _403
REMARK  164  A    between atoms: _405  and  _407
REMARK  165  A    between atoms: _407  and  _408
REMARK  166  A    between atoms: _411  and  _413
REMARK  167  A    between atoms: _413  and  _414
REMARK  168  A    between atoms: _413  and  _416
REMARK  169  A    between atoms: _416  and  _417
REMARK  170  A    between atoms: _427  and  _429
REMARK  171  A    between atoms: _429  and  _430
REMARK  172  A    between atoms: _429  and  _432
REMARK  173  A    between atoms: _432  and  _433
REMARK  174  A    between atoms: _433  and  _434
REMARK  175  A    between atoms: _437  and  _439
REMARK  176  A    between atoms: _439  and  _440
REMARK  177  A    between atoms: _442  and  _444
REMARK  178  A    between atoms: _444  and  _445
REMARK  179  A    between atoms: _444  and  _447
REMARK  180  A    between atoms: _450  and  _452
REMARK  181  A    between atoms: _452  and  _453
REMARK  182  A    between atoms: _452  and  _455
REMARK  183  A    between atoms: _455  and  _456
REMARK  184  A    between atoms: _459  and  _461
REMARK  185  A    between atoms: _461  and  _462
REMARK  186  A    between atoms: _461  and  _464
REMARK  187  A    between atoms: _464  and  _465
REMARK  188  A    between atoms: _468  and  _470
REMARK  189  A    between atoms: _470  and  _471
REMARK  190  A    between atoms: _470  and  _473
REMARK  191  A    between atoms: _473  and  _474
REMARK  192  A    between atoms: _474  and  _475
REMARK  193  A    between atoms: _477  and  _479
REMARK  194  A    between atoms: _479  and  _480
REMARK  195  A    between atoms: _482  and  _484
REMARK  196  A    between atoms: _484  and  _485
REMARK  197  A    between atoms: _487  and  _489
REMARK  198  A    between atoms: _489  and  _490
REMARK  199  A    between atoms: _489  and  _492
REMARK  200  A    between atoms: _495  and  _497
REMARK  201  A    between atoms: _497  and  _498
REMARK  202  A    between atoms: _497  and  _500
REMARK  203  A    between atoms: _500  and  _501
REMARK  204  A    between atoms: _504  and  _506
REMARK  205  A    between atoms: _506  and  _507
REMARK  206  A    between atoms: _506  and  _509
REMARK  207  A    between atoms: _509  and  _510
REMARK  208  A    between atoms: _515  and  _516
REMARK  209  A    between atoms: _518  and  _520
REMARK  210  A    between atoms: _520  and  _521
REMARK  211  A    between atoms: _520  and  _523
REMARK  212  A    between atoms: _523  and  _524
REMARK  213  A    between atoms: _529  and  _530
REMARK  214  A    between atoms: _532  and  _534
REMARK  215  A    between atoms: _534  and  _535
REMARK  216  A    between atoms: _538  and  _540
REMARK  217  A    between atoms: _540  and  _541
REMARK  218  A    between atoms: _540  and  _543
REMARK  219  A    between atoms: _543  and  _544
REMARK  220  A    between atoms: _550  and  _552
REMARK  221  A    between atoms: _552  and  _553
REMARK  222  A    between atoms: _552  and  _555
REMARK  223  A    between atoms: _555  and  _556
REMARK  224  A    between atoms: _558  and  _560
REMARK  225  A    between atoms: _560  and  _561
REMARK  226  A    between atoms: _560  and  _563
REMARK  227  A    between atoms: _563  and  _564
REMARK  228  A    between atoms: _567  and  _569
REMARK  229  A    between atoms: _569  and  _570
REMARK  230  A    between atoms: _569  and  _572
REMARK  231  A    between atoms: _572  and  _573
REMARK  232  A    between atoms: _576  and  _578
REMARK  233  A    between atoms: _578  and  _579
REMARK  234  A    between atoms: _578  and  _581
REMARK  235  A    between atoms: _581  and  _582
REMARK  236  A    between atoms: _592  and  _594
REMARK  237  A    between atoms: _594  and  _595
REMARK  238  A    between atoms: _594  and  _597
REMARK  239  A    between atoms: _597  and  _598
REMARK  240  A    between atoms: _598  and  _599
REMARK  241  A    between atoms: _601  and  _603
REMARK  242  A    between atoms: _603  and  _604
REMARK  243  A    between atoms: _603  and  _606
REMARK  244  A    between atoms: _606  and  _607
REMARK  245  A    between atoms: _610  and  _612
REMARK  246  A    between atoms: _612  and  _613
REMARK  247  A    between atoms: _612  and  _615
REMARK  248  A    between atoms: _615  and  _616
REMARK  249  A    between atoms: _619  and  _621
REMARK  250  A    between atoms: _621  and  _622
REMARK  251  A    between atoms: _625  and  _627
REMARK  252  A    between atoms: _627  and  _628
REMARK  253  A    between atoms: _627  and  _630
REMARK  254  A    between atoms: _630  and  _631
REMARK  255  A    between atoms: _634  and  _636
REMARK  256  A    between atoms: _636  and  _637
REMARK  257  A    between atoms: _639  and  _641
REMARK  258  A    between atoms: _641  and  _642
REMARK  259  A    between atoms: _641  and  _644
REMARK  260  A    between atoms: _644  and  _645
REMARK  261  A    between atoms: _650  and  _652
REMARK  262  A    between atoms: _652  and  _653
REMARK  263  A    between atoms: _652  and  _655
REMARK  264  A    between atoms: _655  and  _656
REMARK                            x       y       z     vdW  Elec       q    Type
REMARK                         _______ _______ _______ _____ _____    ______ ____
ROOT
ATOM      1  CA  TRP A   3      19.520 122.018  21.550  0.00  0.00    +0.153 C 
ENDROOT
BRANCH   1   2
ATOM      2  C   TRP A   3      18.825 123.140  20.742  0.00  0.00    +0.244 C 
ATOM      3  N   PRO A   4      17.484 123.280  20.836  0.00  0.00    -0.273 N 
ATOM      4  CD  PRO A   4      16.437 122.456  21.469  0.00  0.00    +0.094 C 
ATOM      5  CG  PRO A   4      15.233 122.763  20.638  0.00  0.00    +0.024 C 
ATOM      6  CB  PRO A   4      15.389 124.199  20.287  0.00  0.00    +0.030 C 
ATOM      7  CA  PRO A   4      16.892 124.373  20.048  0.00  0.00    +0.140 C 
ATOM      8  O   TRP A   3      19.507 123.874  20.027  0.00  0.00    -0.273 OA
BRANCH   7   9
ATOM      9  C   PRO A   4      17.339 125.756  20.519  0.00  0.00    +0.227 C 
ATOM     10  O   PRO A   4      17.444 126.683  19.714  0.00  0.00    -0.286 OA
ENDBRANCH   7   9
ENDBRANCH   1   2
BRANCH   1  13
ATOM     11  C   ALA A   2      18.892 122.612  23.828  0.00  0.00    +0.241 C 
ATOM     12  O   ALA A   2      19.235 123.782  23.653  0.00  0.00    -0.273 OA
ATOM     13  N   TRP A   3      18.980 121.690  22.873  0.00  0.00    -0.297 N 
ATOM     14  H   TRP A   3      18.660 120.720  23.068  0.00  0.00    +0.150 HD
BRANCH  11  15
ATOM     15  CA  ALA A   2      18.341 122.164  25.186  0.00  0.00    +0.149 C 
ATOM     16  CB  ALA A   2      19.304 121.188  25.875  0.00  0.00    +0.031 C 
BRANCH  15  18
ATOM     17  C   ASP A   1      16.638 120.473  24.586  0.00  0.00    +0.239 C 
ATOM     18  N   ALA A   2      16.973 121.630  25.157  0.00  0.00    -0.297 N 
ATOM     19  H   ALA A   2      16.221 122.188  25.609  0.00  0.00    +0.150 HD
ATOM     20  O   ASP A   1      17.428 119.772  23.950  0.00  0.00    -0.274 OA
BRANCH  17  21
ATOM     21  CA  ASP A   1      15.178 120.050  24.744  0.00  0.00    +0.156 C 
BRANCH  21  22
ATOM     22  N   ASP A   1      14.394 121.057  25.451  0.00  0.00    -0.238 NA
ATOM     23  H   ASP A   1      13.897 121.788  24.903  0.00  0.00    +0.142 HD
ENDBRANCH  21  22
BRANCH  21  24
ATOM     24  CB  ASP A   1      14.570 119.760  23.371  0.00  0.00    +0.140 C 
BRANCH  24  25
ATOM     25  CG  ASP A   1      13.225 119.068  23.463  0.00  0.00    +0.367 C 
ATOM     26  OD2 ASP A   1      12.941 118.447  24.511  0.00  0.00    -0.246 OA
ATOM     27  OD1 ASP A   1      12.454 119.142  22.484  0.00  0.00    -0.246 OA
ENDBRANCH  24  25
ENDBRANCH  21  24
ENDBRANCH  17  21
ENDBRANCH  15  18
ENDBRANCH  11  15
ENDBRANCH   1  13
BRANCH   1  28
ATOM     28  CB  TRP A   3      19.707 120.759  20.688  0.00  0.00    +0.057 C 
BRANCH  28  29
ATOM     29  CG  TRP A   3      18.440 120.051  20.298  0.00  0.00    -0.002 A 
ATOM     30  CD1 TRP A   3      17.873 118.979  20.927  0.00  0.00    +0.068 A 
ATOM     31  NE1 TRP A   3      16.723 118.600  20.275  0.00  0.00    -0.352 N 
ATOM     32  HE1 TRP A   3      16.103 117.812  20.551  0.00  0.00    +0.166 HD
ATOM     33  CE2 TRP A   3      16.527 119.430  19.202  0.00  0.00    +0.056 A 
ATOM     34  CZ2 TRP A   3      15.506 119.445  18.252  0.00  0.00    +0.017 A 
ATOM     35  CH2 TRP A   3      15.566 120.402  17.277  0.00  0.00    +0.001 A 
ATOM     36  CZ3 TRP A   3      16.611 121.336  17.230  0.00  0.00    +0.000 A 
ATOM     37  CE3 TRP A   3      17.625 121.325  18.173  0.00  0.00    +0.001 A 
ATOM     38  CD2 TRP A   3      17.592 120.354  19.181  0.00  0.00    +0.013 A 
ENDBRANCH  28  29
ENDBRANCH   1  28
TORSDOF 11
REMARK  Name = ../refined-set-2016/4c1t/4c1t_pocket.pdb
REMARK  264 active torsions:
REMARK  status: ('A' for Active; 'I' for Inactive)
REMARK    1  A    between atoms: _1  and  _3
REMARK    2  A    between atoms: _3  and  _4
REMARK    3  A    between atoms: _3  and  _6
REMARK    4  A    between atoms: _6  and  _7
REMARK    5  A    between atoms: _12  and  _14
REMARK    6  A    between atoms: _14  and  _15
REMARK    7  A    between atoms: _14  and  _17
REMARK    8  A    between atoms: _17  and  _18
REMARK    9  A    between atoms: _23  and  _25
REMARK   10  A    between atoms: _25  and  _26
REMARK   11  A    between atoms: _29  and  _31
REMARK   12  A    between atoms: _31  and  _32
REMARK   13  A    between atoms: _31  and  _34
REMARK   14  A    between atoms: _34  and  _35
REMARK   15  A    between atoms: _37  and  _39
REMARK   16  A    between atoms: _39  and  _40
REMARK   17  A    between atoms: _43  and  _45
REMARK   18  A    between atoms: _45  and  _46
REMARK   19  A    between atoms: _48  and  _50
REMARK   20  A    between atoms: _50  and  _51
REMARK   21  A    between atoms: _50  and  _53
REMARK   22  A    between atoms: _53  and  _54
REMARK   23  A    between atoms: _54  and  _55
REMARK   24  A    between atoms: _58  and  _60
REMARK   25  A    between atoms: _60  and  _61
REMARK   26  A    between atoms: _63  and  _65
REMARK   27  A    between atoms: _65  and  _66
REMARK   28  A    between atoms: _65  and  _68
REMARK   29  A    between atoms: _68  and  _69
REMARK   30  A    between atoms: _69  and  _70
REMARK   31  A    between atoms: _70  and  _71
REMARK   32  A    between atoms: _80  and  _82
REMARK   33  A    between atoms: _82  and  _83
REMARK   34  A    between atoms: _82  and  _85
REMARK   35  A    between atoms: _85  and  _86
REMARK   36  A    between atoms: _86  and  _87
REMARK   37  A    between atoms: _92  and  _94
REMARK   38  A    between atoms: _94  and  _95
REMARK   39  A    between atoms: _94  and  _97
REMARK   40  A    between atoms: _97  and  _98
REMARK   41  A    between atoms: _103  and  _104
REMARK   42  A    between atoms: _106  and  _108
REMARK   43  A    between atoms: _108  and  _109
REMARK   44  A    between atoms: _108  and  _111
REMARK   45  A    between atoms: _111  and  _112
REMARK   46  A    between atoms: _122  and  _124
REMARK   47  A    between atoms: _124  and  _125
REMARK   48  A    between atoms: _124  and  _127
REMARK   49  A    between atoms: _127  and  _128
REMARK   50  A    between atoms: _131  and  _133
REMARK   51  A    between atoms: _133  and  _134
REMARK   52  A    between atoms: _133  and  _136
REMARK   53  A    between atoms: _136  and  _137
REMARK   54  A    between atoms: _137  and  _138
REMARK   55  A    between atoms: _143  and  _145
REMARK   56  A    between atoms: _145  and  _146
REMARK   57  A    between atoms: _145  and  _148
REMARK   58  A    between atoms: _148  and  _149
REMARK   59  A    between atoms: _154  and  _156
REMARK   60  A    between atoms: _156  and  _157
REMARK   61  A    between atoms: _156  and  _159
REMARK   62  A    between atoms: _159  and  _160
REMARK   63  A    between atoms: _160  and  _161
REMARK   64  A    between atoms: _164  and  _166
REMARK   65  A    between atoms: _166  and  _167
REMARK   66  A    between atoms: _166  and  _169
REMARK   67  A    between atoms: _169  and  _170
REMARK   68  A    between atoms: _173  and  _175
REMARK   69  A    between atoms: _175  and  _176
REMARK   70  A    between atoms: _175  and  _178
REMARK   71  A    between atoms: _178  and  _179
REMARK   72  A    between atoms: _185  and  _187
REMARK   73  A    between atoms: _187  and  _188
REMARK   74  A    between atoms: _191  and  _193
REMARK   75  A    between atoms: _193  and  _194
REMARK   76  A    between atoms: _196  and  _198
REMARK   77  A    between atoms: _198  and  _199
REMARK   78  A    between atoms: _198  and  _201
REMARK   79  A    between atoms: _201  and  _202
REMARK   80  A    between atoms: _202  and  _203
REMARK   81  A    between atoms: _203  and  _204
REMARK   82  A    between atoms: _204  and  _205
REMARK   83  A    between atoms: _209  and  _211
REMARK   84  A    between atoms: _211  and  _212
REMARK   85  A    between atoms: _211  and  _214
REMARK   86  A    between atoms: _214  and  _215
REMARK   87  A    between atoms: _218  and  _220
REMARK   88  A    between atoms: _220  and  _221
REMARK   89  A    between atoms: _220  and  _223
REMARK   90  A    between atoms: _223  and  _224
REMARK   91  A    between atoms: _224  and  _225
REMARK   92  A    between atoms: _230  and  _232
REMARK   93  A    between atoms: _232  and  _233
REMARK   94  A    between atoms: _232  and  _235
REMARK   95  A    between atoms: _235  and  _236
REMARK   96  A    between atoms: _236  and  _237
REMARK   97  A    between atoms: _239  and  _241
REMARK   98  A    between atoms: _241  and  _242
REMARK   99  A    between atoms: _241  and  _244
REMARK  100  A    between atoms: _244  and  _245
REMARK  101  A    between atoms: _247  and  _249
REMARK  102  A    between atoms: _249  and  _250
REMARK  103  A    between atoms: _249  and  _252
REMARK  104  A    between atoms: _252  and  _253
REMARK  105  A    between atoms: _256  and  _258
REMARK  106  A    between atoms: _258  and  _259
REMARK  107  A    between atoms: _261  and  _263
REMARK  108  A    between atoms: _263  and  _264
REMARK  109  A    between atoms: _263  and  _266
REMARK  110  A    between atoms: _266  and  _267
REMARK  111  A    between atoms: _267  and  _268
REMARK  112  A    between atoms: _268  and  _269
REMARK  113  A    between atoms: _269  and  _270
REMARK  114  A    between atoms: _274  and  _276
REMARK  115  A    between atoms: _276  and  _277
REMARK  116  A    between atoms: _276  and  _279
REMARK  117  A    between atoms: _279  and  _280
REMARK  118  A    between atoms: _282  and  _284
REMARK  119  A    between atoms: _284  and  _285
REMARK  120  A    between atoms: _284  and  _287
REMARK  121  A    between atoms: _287  and  _288
REMARK  122  A    between atoms: _288  and  _289
REMARK  123  A    between atoms: _292  and  _294
REMARK  124  A    between atoms: _294  and  _295
REMARK  125  A    between atoms: _294  and  _297
REMARK  126  A    between atoms: _297  and  _298
REMARK  127  A    between atoms: _301  and  _303
REMARK  128  A    between atoms: _303  and  _304
REMARK  129  A    between atoms: _307  and  _309
REMARK  130  A    between atoms: _309  and  _310
REMARK  131  A    between atoms: _309  and  _312
REMARK  132  A    between atoms: _312  and  _313
REMARK  133  A    between atoms: _324  and  _325
REMARK  134  A    between atoms: _330  and  _332
REMARK  135  A    between atoms: _332  and  _333
REMARK  136  A    between atoms: _336  and  _338
REMARK  137  A    between atoms: _338  and  _339
REMARK  138  A    between atoms: _338  and  _341
REMARK  139  A    between atoms: _341  and  _342
REMARK  140  A    between atoms: _347  and  _349
REMARK  141  A    between atoms: _349  and  _350
REMARK  142  A    between atoms: _349  and  _352
REMARK  143  A    between atoms: _352  and  _353
REMARK  144  A    between atoms: _358  and  _359
REMARK  145  A    between atoms: _361  and  _363
REMARK  146  A    between atoms: _363  and  _364
REMARK  147  A    between atoms: _367  and  _369
REMARK  148  A    between atoms: _369  and  _370
REMARK  149  A    between atoms: _369  and  _372
REMARK  150  A    between atoms: _372  and  _373
REMARK  151  A    between atoms: _373  and  _374
REMARK  152  A    between atoms: _379  and  _381
REMARK  153  A    between atoms: _381  and  _382
REMARK  154  A    between atoms: _381  and  _384
REMARK  155  A    between atoms: _384  and  _385
REMARK  156  A    between atoms: _385  and  _386
REMARK  157  A    between atoms: _391  and  _393
REMARK  158  A    between atoms: _393  and  _394
REMARK  159  A    between atoms: _393  and  _396
REMARK  160  A    between atoms: _396  and  _397
REMARK  161  A    between atoms: _397  and  _398
REMARK  162  A    between atoms: _400  and  _402
REMARK  163  A    between atoms: _402  and  _403
REMARK  164  A    between atoms: _405  and  _407
REMARK  165  A    between atoms: _407  and  _408
REMARK  166  A    between atoms: _411  and  _413
REMARK  167  A    between atoms: _413  and  _414
REMARK  168  A    between atoms: _413  and  _416
REMARK  169  A    between atoms: _416  and  _417
REMARK  170  A    between atoms: _427  and  _429
REMARK  171  A    between atoms: _429  and  _430
REMARK  172  A    between atoms: _429  and  _432
REMARK  173  A    between atoms: _432  and  _433
REMARK  174  A    between atoms: _433  and  _434
REMARK  175  A    between atoms: _437  and  _439
REMARK  176  A    between atoms: _439  and  _440
REMARK  177  A    between atoms: _442  and  _444
REMARK  178  A    between atoms: _444  and  _445
REMARK  179  A    between atoms: _444  and  _447
REMARK  180  A    between atoms: _450  and  _452
REMARK  181  A    between atoms: _452  and  _453
REMARK  182  A    between atoms: _452  and  _455
REMARK  183  A    between atoms: _455  and  _456
REMARK  184  A    between atoms: _459  and  _461
REMARK  185  A    between atoms: _461  and  _462
REMARK  186  A    between atoms: _461  and  _464
REMARK  187  A    between atoms: _464  and  _465
REMARK  188  A    between atoms: _468  and  _470
REMARK  189  A    between atoms: _470  and  _471
REMARK  190  A    between atoms: _470  and  _473
REMARK  191  A    between atoms: _473  and  _474
REMARK  192  A    between atoms: _474  and  _475
REMARK  193  A    between atoms: _477  and  _479
REMARK  194  A    between atoms: _479  and  _480
REMARK  195  A    between atoms: _482  and  _484
REMARK  196  A    between atoms: _484  and  _485
REMARK  197  A    between atoms: _487  and  _489
REMARK  198  A    between atoms: _489  and  _490
REMARK  199  A    between atoms: _489  and  _492
REMARK  200  A    between atoms: _495  and  _497
REMARK  201  A    between atoms: _497  and  _498
REMARK  202  A    between atoms: _497  and  _500
REMARK  203  A    between atoms: _500  and  _501
REMARK  204  A    between atoms: _504  and  _506
REMARK  205  A    between atoms: _506  and  _507
REMARK  206  A    between atoms: _506  and  _509
REMARK  207  A    between atoms: _509  and  _510
REMARK  208  A    between atoms: _515  and  _516
REMARK  209  A    between atoms: _518  and  _520
REMARK  210  A    between atoms: _520  and  _521
REMARK  211  A    between atoms: _520  and  _523
REMARK  212  A    between atoms: _523  and  _524
REMARK  213  A    between atoms: _529  and  _530
REMARK  214  A    between atoms: _532  and  _534
REMARK  215  A    between atoms: _534  and  _535
REMARK  216  A    between atoms: _538  and  _540
REMARK  217  A    between atoms: _540  and  _541
REMARK  218  A    between atoms: _540  and  _543
REMARK  219  A    between atoms: _543  and  _544
REMARK  220  A    between atoms: _550  and  _552
REMARK  221  A    between atoms: _552  and  _553
REMARK  222  A    between atoms: _552  and  _555
REMARK  223  A    between atoms: _555  and  _556
REMARK  224  A    between atoms: _558  and  _560
REMARK  225  A    between atoms: _560  and  _561
REMARK  226  A    between atoms: _560  and  _563
REMARK  227  A    between atoms: _563  and  _564
REMARK  228  A    between atoms: _567  and  _569
REMARK  229  A    between atoms: _569  and  _570
REMARK  230  A    between atoms: _569  and  _572
REMARK  231  A    between atoms: _572  and  _573
REMARK  232  A    between atoms: _576  and  _578
REMARK  233  A    between atoms: _578  and  _579
REMARK  234  A    between atoms: _578  and  _581
REMARK  235  A    between atoms: _581  and  _582
REMARK  236  A    between atoms: _592  and  _594
REMARK  237  A    between atoms: _594  and  _595
REMARK  238  A    between atoms: _594  and  _597
REMARK  239  A    between atoms: _597  and  _598
REMARK  240  A    between atoms: _598  and  _599
REMARK  241  A    between atoms: _601  and  _603
REMARK  242  A    between atoms: _603  and  _604
REMARK  243  A    between atoms: _603  and  _606
REMARK  244  A    between atoms: _606  and  _607
REMARK  245  A    between atoms: _610  and  _612
REMARK  246  A    between atoms: _612  and  _613
REMARK  247  A    between atoms: _612  and  _615
REMARK  248  A    between atoms: _615  and  _616
REMARK  249  A    between atoms: _619  and  _621
REMARK  250  A    between atoms: _621  and  _622
REMARK  251  A    between atoms: _625  and  _627
REMARK  252  A    between atoms: _627  and  _628
REMARK  253  A    between atoms: _627  and  _630
REMARK  254  A    between atoms: _630  and  _631
REMARK  255  A    between atoms: _634  and  _636
REMARK  256  A    between atoms: _636  and  _637
REMARK  257  A    between atoms: _639  and  _641
REMARK  258  A    between atoms: _641  and  _642
REMARK  259  A    between atoms: _641  and  _644
REMARK  260  A    between atoms: _644  and  _645
REMARK  261  A    between atoms: _650  and  _652
REMARK  262  A    between atoms: _652  and  _653
REMARK  263  A    between atoms: _652  and  _655
REMARK  264  A    between atoms: _655  and  _656
REMARK                            x       y       z     vdW  Elec       q    Type
REMARK                         _______ _______ _______ _____ _____    ______ ____
ROOT
ATOM      1  CA  HIS A   2      21.084 126.665  17.873  0.00  0.00    +0.143 C 
ENDROOT
BRANCH   1   4
ATOM      2  C   ALA A   1      21.962 126.601  20.149  0.00  0.00    +0.238 C 
ATOM      3  O   ALA A   1      23.023 127.124  19.810  0.00  0.00    -0.274 OA
ATOM      4  N   HIS A   2      20.974 126.348  19.295  0.00  0.00    -0.298 N 
ATOM      5  H   HIS A   2      20.099 125.912  19.649  0.00  0.00    +0.150 HD
BRANCH   2   6
ATOM      6  CA  ALA A   1      21.724 126.207  21.604  0.00  0.00    +0.145 C 
ATOM      7  CB  ALA A   1      22.346 124.846  21.896  0.00  0.00    +0.028 C 
BRANCH   6   8
ATOM      8  N   ALA A   1      20.309 126.201  21.952  0.00  0.00    -0.238 NA
ATOM      9  H   ALA A   1      19.862 125.302  22.224  0.00  0.00    +0.142 HD
ENDBRANCH   6   8
ENDBRANCH   2   6
ENDBRANCH   1   4
BRANCH   1  10
ATOM     10  C   HIS A   2      21.355 128.145  17.622  0.00  0.00    +0.227 C 
ATOM     11  O   HIS A   2      21.984 128.511  16.630  0.00  0.00    -0.286 OA
ENDBRANCH   1  10
BRANCH   1  12
ATOM     12  CB  HIS A   2      19.828 126.227  17.119  0.00  0.00    +0.075 C 
BRANCH  12  13
ATOM     13  CG  HIS A   2      19.893 124.823  16.604  0.00  0.00    +0.082 A 
ATOM     14  CD2 HIS A   2      20.472 123.711  17.114  0.00  0.00    +0.115 A 
ATOM     15  NE2 HIS A   2      20.235 122.687  16.231  0.00  0.00    -0.221 NA
ATOM     16  CE1 HIS A   2      19.534 123.153  15.211  0.00  0.00    +0.199 A 
ATOM     17  ND1 HIS A   2      19.316 124.442  15.412  0.00  0.00    -0.227 NA
ENDBRANCH  12  13
ENDBRANCH   1  12
TORSDOF 6
REMARK  Name = ../refined-set-2016/4c1t/4c1t_pocket.pdb
REMARK  264 active torsions:
REMARK  status: ('A' for Active; 'I' for Inactive)
REMARK    1  A    between atoms: _1  and  _3
REMARK    2  A    between atoms: _3  and  _4
REMARK    3  A    between atoms: _3  and  _6
REMARK    4  A    between atoms: _6  and  _7
REMARK    5  A    between atoms: _12  and  _14
REMARK    6  A    between atoms: _14  and  _15
REMARK    7  A    between atoms: _14  and  _17
REMARK    8  A    between atoms: _17  and  _18
REMARK    9  A    between atoms: _23  and  _25
REMARK   10  A    between atoms: _25  and  _26
REMARK   11  A    between atoms: _29  and  _31
REMARK   12  A    between atoms: _31  and  _32
REMARK   13  A    between atoms: _31  and  _34
REMARK   14  A    between atoms: _34  and  _35
REMARK   15  A    between atoms: _37  and  _39
REMARK   16  A    between atoms: _39  and  _40
REMARK   17  A    between atoms: _43  and  _45
REMARK   18  A    between atoms: _45  and  _46
REMARK   19  A    between atoms: _48  and  _50
REMARK   20  A    between atoms: _50  and  _51
REMARK   21  A    between atoms: _50  and  _53
REMARK   22  A    between atoms: _53  and  _54
REMARK   23  A    between atoms: _54  and  _55
REMARK   24  A    between atoms: _58  and  _60
REMARK   25  A    between atoms: _60  and  _61
REMARK   26  A    between atoms: _63  and  _65
REMARK   27  A    between atoms: _65  and  _66
REMARK   28  A    between atoms: _65  and  _68
REMARK   29  A    between atoms: _68  and  _69
REMARK   30  A    between atoms: _69  and  _70
REMARK   31  A    between atoms: _70  and  _71
REMARK   32  A    between atoms: _80  and  _82
REMARK   33  A    between atoms: _82  and  _83
REMARK   34  A    between atoms: _82  and  _85
REMARK   35  A    between atoms: _85  and  _86
REMARK   36  A    between atoms: _86  and  _87
REMARK   37  A    between atoms: _92  and  _94
REMARK   38  A    between atoms: _94  and  _95
REMARK   39  A    between atoms: _94  and  _97
REMARK   40  A    between atoms: _97  and  _98
REMARK   41  A    between atoms: _103  and  _104
REMARK   42  A    between atoms: _106  and  _108
REMARK   43  A    between atoms: _108  and  _109
REMARK   44  A    between atoms: _108  and  _111
REMARK   45  A    between atoms: _111  and  _112
REMARK   46  A    between atoms: _122  and  _124
REMARK   47  A    between atoms: _124  and  _125
REMARK   48  A    between atoms: _124  and  _127
REMARK   49  A    between atoms: _127  and  _128
REMARK   50  A    between atoms: _131  and  _133
REMARK   51  A    between atoms: _133  and  _134
REMARK   52  A    between atoms: _133  and  _136
REMARK   53  A    between atoms: _136  and  _137
REMARK   54  A    between atoms: _137  and  _138
REMARK   55  A    between atoms: _143  and  _145
REMARK   56  A    between atoms: _145  and  _146
REMARK   57  A    between atoms: _145  and  _148
REMARK   58  A    between atoms: _148  and  _149
REMARK   59  A    between atoms: _154  and  _156
REMARK   60  A    between atoms: _156  and  _157
REMARK   61  A    between atoms: _156  and  _159
REMARK   62  A    between atoms: _159  and  _160
REMARK   63  A    between atoms: _160  and  _161
REMARK   64  A    between atoms: _164  and  _166
REMARK   65  A    between atoms: _166  and  _167
REMARK   66  A    between atoms: _166  and  _169
REMARK   67  A    between atoms: _169  and  _170
REMARK   68  A    between atoms: _173  and  _175
REMARK   69  A    between atoms: _175  and  _176
REMARK   70  A    between atoms: _175  and  _178
REMARK   71  A    between atoms: _178  and  _179
REMARK   72  A    between atoms: _185  and  _187
REMARK   73  A    between atoms: _187  and  _188
REMARK   74  A    between atoms: _191  and  _193
REMARK   75  A    between atoms: _193  and  _194
REMARK   76  A    between atoms: _196  and  _198
REMARK   77  A    between atoms: _198  and  _199
REMARK   78  A    between atoms: _198  and  _201
REMARK   79  A    between atoms: _201  and  _202
REMARK   80  A    between atoms: _202  and  _203
REMARK   81  A    between atoms: _203  and  _204
REMARK   82  A    between atoms: _204  and  _205
REMARK   83  A    between atoms: _209  and  _211
REMARK   84  A    between atoms: _211  and  _212
REMARK   85  A    between atoms: _211  and  _214
REMARK   86  A    between atoms: _214  and  _215
REMARK   87  A    between atoms: _218  and  _220
REMARK   88  A    between atoms: _220  and  _221
REMARK   89  A    between atoms: _220  and  _223
REMARK   90  A    between atoms: _223  and  _224
REMARK   91  A    between atoms: _224  and  _225
REMARK   92  A    between atoms: _230  and  _232
REMARK   93  A    between atoms: _232  and  _233
REMARK   94  A    between atoms: _232  and  _235
REMARK   95  A    between atoms: _235  and  _236
REMARK   96  A    between atoms: _236  and  _237
REMARK   97  A    between atoms: _239  and  _241
REMARK   98  A    between atoms: _241  and  _242
REMARK   99  A    between atoms: _241  and  _244
REMARK  100  A    between atoms: _244  and  _245
REMARK  101  A    between atoms: _247  and  _249
REMARK  102  A    between atoms: _249  and  _250
REMARK  103  A    between atoms: _249  and  _252
REMARK  104  A    between atoms: _252  and  _253
REMARK  105  A    between atoms: _256  and  _258
REMARK  106  A    between atoms: _258  and  _259
REMARK  107  A    between atoms: _261  and  _263
REMARK  108  A    between atoms: _263  and  _264
REMARK  109  A    between atoms: _263  and  _266
REMARK  110  A    between atoms: _266  and  _267
REMARK  111  A    between atoms: _267  and  _268
REMARK  112  A    between atoms: _268  and  _269
REMARK  113  A    between atoms: _269  and  _270
REMARK  114  A    between atoms: _274  and  _276
REMARK  115  A    between atoms: _276  and  _277
REMARK  116  A    between atoms: _276  and  _279
REMARK  117  A    between atoms: _279  and  _280
REMARK  118  A    between atoms: _282  and  _284
REMARK  119  A    between atoms: _284  and  _285
REMARK  120  A    between atoms: _284  and  _287
REMARK  121  A    between atoms: _287  and  _288
REMARK  122  A    between atoms: _288  and  _289
REMARK  123  A    between atoms: _292  and  _294
REMARK  124  A    between atoms: _294  and  _295
REMARK  125  A    between atoms: _294  and  _297
REMARK  126  A    between atoms: _297  and  _298
REMARK  127  A    between atoms: _301  and  _303
REMARK  128  A    between atoms: _303  and  _304
REMARK  129  A    between atoms: _307  and  _309
REMARK  130  A    between atoms: _309  and  _310
REMARK  131  A    between atoms: _309  and  _312
REMARK  132  A    between atoms: _312  and  _313
REMARK  133  A    between atoms: _324  and  _325
REMARK  134  A    between atoms: _330  and  _332
REMARK  135  A    between atoms: _332  and  _333
REMARK  136  A    between atoms: _336  and  _338
REMARK  137  A    between atoms: _338  and  _339
REMARK  138  A    between atoms: _338  and  _341
REMARK  139  A    between atoms: _341  and  _342
REMARK  140  A    between atoms: _347  and  _349
REMARK  141  A    between atoms: _349  and  _350
REMARK  142  A    between atoms: _349  and  _352
REMARK  143  A    between atoms: _352  and  _353
REMARK  144  A    between atoms: _358  and  _359
REMARK  145  A    between atoms: _361  and  _363
REMARK  146  A    between atoms: _363  and  _364
REMARK  147  A    between atoms: _367  and  _369
REMARK  148  A    between atoms: _369  and  _370
REMARK  149  A    between atoms: _369  and  _372
REMARK  150  A    between atoms: _372  and  _373
REMARK  151  A    between atoms: _373  and  _374
REMARK  152  A    between atoms: _379  and  _381
REMARK  153  A    between atoms: _381  and  _382
REMARK  154  A    between atoms: _381  and  _384
REMARK  155  A    between atoms: _384  and  _385
REMARK  156  A    between atoms: _385  and  _386
REMARK  157  A    between atoms: _391  and  _393
REMARK  158  A    between atoms: _393  and  _394
REMARK  159  A    between atoms: _393  and  _396
REMARK  160  A    between atoms: _396  and  _397
REMARK  161  A    between atoms: _397  and  _398
REMARK  162  A    between atoms: _400  and  _402
REMARK  163  A    between atoms: _402  and  _403
REMARK  164  A    between atoms: _405  and  _407
REMARK  165  A    between atoms: _407  and  _408
REMARK  166  A    between atoms: _411  and  _413
REMARK  167  A    between atoms: _413  and  _414
REMARK  168  A    between atoms: _413  and  _416
REMARK  169  A    between atoms: _416  and  _417
REMARK  170  A    between atoms: _427  and  _429
REMARK  171  A    between atoms: _429  and  _430
REMARK  172  A    between atoms: _429  and  _432
REMARK  173  A    between atoms: _432  and  _433
REMARK  174  A    between atoms: _433  and  _434
REMARK  175  A    between atoms: _437  and  _439
REMARK  176  A    between atoms: _439  and  _440
REMARK  177  A    between atoms: _442  and  _444
REMARK  178  A    between atoms: _444  and  _445
REMARK  179  A    between atoms: _444  and  _447
REMARK  180  A    between atoms: _450  and  _452
REMARK  181  A    between atoms: _452  and  _453
REMARK  182  A    between atoms: _452  and  _455
REMARK  183  A    between atoms: _455  and  _456
REMARK  184  A    between atoms: _459  and  _461
REMARK  185  A    between atoms: _461  and  _462
REMARK  186  A    between atoms: _461  and  _464
REMARK  187  A    between atoms: _464  and  _465
REMARK  188  A    between atoms: _468  and  _470
REMARK  189  A    between atoms: _470  and  _471
REMARK  190  A    between atoms: _470  and  _473
REMARK  191  A    between atoms: _473  and  _474
REMARK  192  A    between atoms: _474  and  _475
REMARK  193  A    between atoms: _477  and  _479
REMARK  194  A    between atoms: _479  and  _480
REMARK  195  A    between atoms: _482  and  _484
REMARK  196  A    between atoms: _484  and  _485
REMARK  197  A    between atoms: _487  and  _489
REMARK  198  A    between atoms: _489  and  _490
REMARK  199  A    between atoms: _489  and  _492
REMARK  200  A    between atoms: _495  and  _497
REMARK  201  A    between atoms: _497  and  _498
REMARK  202  A    between atoms: _497  and  _500
REMARK  203  A    between atoms: _500  and  _501
REMARK  204  A    between atoms: _504  and  _506
REMARK  205  A    between atoms: _506  and  _507
REMARK  206  A    between atoms: _506  and  _509
REMARK  207  A    between atoms: _509  and  _510
REMARK  208  A    between atoms: _515  and  _516
REMARK  209  A    between atoms: _518  and  _520
REMARK  210  A    between atoms: _520  and  _521
REMARK  211  A    between atoms: _520  and  _523
REMARK  212  A    between atoms: _523  and  _524
REMARK  213  A    between atoms: _529  and  _530
REMARK  214  A    between atoms: _532  and  _534
REMARK  215  A    between atoms: _534  and  _535
REMARK  216  A    between atoms: _538  and  _540
REMARK  217  A    between atoms: _540  and  _541
REMARK  218  A    between atoms: _540  and  _543
REMARK  219  A    between atoms: _543  and  _544
REMARK  220  A    between atoms: _550  and  _552
REMARK  221  A    between atoms: _552  and  _553
REMARK  222  A    between atoms: _552  and  _555
REMARK  223  A    between atoms: _555  and  _556
REMARK  224  A    between atoms: _558  and  _560
REMARK  225  A    between atoms: _560  and  _561
REMARK  226  A    between atoms: _560  and  _563
REMARK  227  A    between atoms: _563  and  _564
REMARK  228  A    between atoms: _567  and  _569
REMARK  229  A    between atoms: _569  and  _570
REMARK  230  A    between atoms: _569  and  _572
REMARK  231  A    between atoms: _572  and  _573
REMARK  232  A    between atoms: _576  and  _578
REMARK  233  A    between atoms: _578  and  _579
REMARK  234  A    between atoms: _578  and  _581
REMARK  235  A    between atoms: _581  and  _582
REMARK  236  A    between atoms: _592  and  _594
REMARK  237  A    between atoms: _594  and  _595
REMARK  238  A    between atoms: _594  and  _597
REMARK  239  A    between atoms: _597  and  _598
REMARK  240  A    between atoms: _598  and  _599
REMARK  241  A    between atoms: _601  and  _603
REMARK  242  A    between atoms: _603  and  _604
REMARK  243  A    between atoms: _603  and  _606
REMARK  244  A    between atoms: _606  and  _607
REMARK  245  A    between atoms: _610  and  _612
REMARK  246  A    between atoms: _612  and  _613
REMARK  247  A    between atoms: _612  and  _615
REMARK  248  A    between atoms: _615  and  _616
REMARK  249  A    between atoms: _619  and  _621
REMARK  250  A    between atoms: _621  and  _622
REMARK  251  A    between atoms: _625  and  _627
REMARK  252  A    between atoms: _627  and  _628
REMARK  253  A    between atoms: _627  and  _630
REMARK  254  A    between atoms: _630  and  _631
REMARK  255  A    between atoms: _634  and  _636
REMARK  256  A    between atoms: _636  and  _637
REMARK  257  A    between atoms: _639  and  _641
REMARK  258  A    between atoms: _641  and  _642
REMARK  259  A    between atoms: _641  and  _644
REMARK  260  A    between atoms: _644  and  _645
REMARK  261  A    between atoms: _650  and  _652
REMARK  262  A    between atoms: _652  and  _653
REMARK  263  A    between atoms: _652  and  _655
REMARK  264  A    between atoms: _655  and  _656
REMARK                            x       y       z     vdW  Elec       q    Type
REMARK                         _______ _______ _______ _____ _____    ______ ____
ROOT
ATOM      1  CG  TYR A   1      24.718 125.424  17.418  0.00  0.00    -0.020 A 
ATOM      2  CD2 TYR A   1      25.235 125.374  18.707  0.00  0.00    -0.001 A 
ATOM      3  CE2 TYR A   1      24.941 124.318  19.551  0.00  0.00    +0.036 A 
ATOM      4  CZ  TYR A   1      24.130 123.291  19.102  0.00  0.00    +0.134 A 
ATOM      5  CE1 TYR A   1      23.617 123.315  17.825  0.00  0.00    +0.036 A 
ATOM      6  CD1 TYR A   1      23.911 124.374  16.994  0.00  0.00    -0.001 A 
ENDROOT
BRANCH   4   7
ATOM      7  OH  TYR A   1      23.827 122.233  19.927  0.00  0.00    -0.506 OA
ATOM      8  HH  TYR A   1      24.268 122.363  20.804  0.00  0.00    +0.292 HD
ENDBRANCH   4   7
BRANCH   1   9
ATOM      9  CB  TYR A   1      25.028 126.572  16.483  0.00  0.00    +0.051 C 
BRANCH   9  10
ATOM     10  CA  TYR A   1      25.769 127.773  17.084  0.00  0.00    +0.137 C 
BRANCH  10  11
ATOM     11  N   TYR A   1      25.042 128.363  18.210  0.00  0.00    -0.239 NA
ATOM     12  H   TYR A   1      24.169 127.908  18.544  0.00  0.00    +0.142 HD
ENDBRANCH  10  11
BRANCH  10  13
ATOM     13  C   TYR A   1      25.932 128.796  15.975  0.00  0.00    +0.224 C 
ATOM     14  O   TYR A   1      27.043 129.062  15.510  0.00  0.00    -0.287 OA
ENDBRANCH  10  13
ENDBRANCH   9  10
ENDBRANCH   1   9
TORSDOF 5
REMARK  Name = ../refined-set-2016/4c1t/4c1t_pocket.pdb
REMARK  264 active torsions:
REMARK  status: ('A' for Active; 'I' for Inactive)
REMARK    1  A    between atoms: _1  and  _3
REMARK    2  A    between atoms: _3  and  _4
REMARK    3  A    between atoms: _3  and  _6
REMARK    4  A    between atoms: _6  and  _7
REMARK    5  A    between atoms: _12  and  _14
REMARK    6  A    between atoms: _14  and  _15
REMARK    7  A    between atoms: _14  and  _17
REMARK    8  A    between atoms: _17  and  _18
REMARK    9  A    between atoms: _23  and  _25
REMARK   10  A    between atoms: _25  and  _26
REMARK   11  A    between atoms: _29  and  _31
REMARK   12  A    between atoms: _31  and  _32
REMARK   13  A    between atoms: _31  and  _34
REMARK   14  A    between atoms: _34  and  _35
REMARK   15  A    between atoms: _37  and  _39
REMARK   16  A    between atoms: _39  and  _40
REMARK   17  A    between atoms: _43  and  _45
REMARK   18  A    between atoms: _45  and  _46
REMARK   19  A    between atoms: _48  and  _50
REMARK   20  A    between atoms: _50  and  _51
REMARK   21  A    between atoms: _50  and  _53
REMARK   22  A    between atoms: _53  and  _54
REMARK   23  A    between atoms: _54  and  _55
REMARK   24  A    between atoms: _58  and  _60
REMARK   25  A    between atoms: _60  and  _61
REMARK   26  A    between atoms: _63  and  _65
REMARK   27  A    between atoms: _65  and  _66
REMARK   28  A    between atoms: _65  and  _68
REMARK   29  A    between atoms: _68  and  _69
REMARK   30  A    between atoms: _69  and  _70
REMARK   31  A    between atoms: _70  and  _71
REMARK   32  A    between atoms: _80  and  _82
REMARK   33  A    between atoms: _82  and  _83
REMARK   34  A    between atoms: _82  and  _85
REMARK   35  A    between atoms: _85  and  _86
REMARK   36  A    between atoms: _86  and  _87
REMARK   37  A    between atoms: _92  and  _94
REMARK   38  A    between atoms: _94  and  _95
REMARK   39  A    between atoms: _94  and  _97
REMARK   40  A    between atoms: _97  and  _98
REMARK   41  A    between atoms: _103  and  _104
REMARK   42  A    between atoms: _106  and  _108
REMARK   43  A    between atoms: _108  and  _109
REMARK   44  A    between atoms: _108  and  _111
REMARK   45  A    between atoms: _111  and  _112
REMARK   46  A    between atoms: _122  and  _124
REMARK   47  A    between atoms: _124  and  _125
REMARK   48  A    between atoms: _124  and  _127
REMARK   49  A    between atoms: _127  and  _128
REMARK   50  A    between atoms: _131  and  _133
REMARK   51  A    between atoms: _133  and  _134
REMARK   52  A    between atoms: _133  and  _136
REMARK   53  A    between atoms: _136  and  _137
REMARK   54  A    between atoms: _137  and  _138
REMARK   55  A    between atoms: _143  and  _145
REMARK   56  A    between atoms: _145  and  _146
REMARK   57  A    between atoms: _145  and  _148
REMARK   58  A    between atoms: _148  and  _149
REMARK   59  A    between atoms: _154  and  _156
REMARK   60  A    between atoms: _156  and  _157
REMARK   61  A    between atoms: _156  and  _159
REMARK   62  A    between atoms: _159  and  _160
REMARK   63  A    between atoms: _160  and  _161
REMARK   64  A    between atoms: _164  and  _166
REMARK   65  A    between atoms: _166  and  _167
REMARK   66  A    between atoms: _166  and  _169
REMARK   67  A    between atoms: _169  and  _170
REMARK   68  A    between atoms: _173  and  _175
REMARK   69  A    between atoms: _175  and  _176
REMARK   70  A    between atoms: _175  and  _178
REMARK   71  A    between atoms: _178  and  _179
REMARK   72  A    between atoms: _185  and  _187
REMARK   73  A    between atoms: _187  and  _188
REMARK   74  A    between atoms: _191  and  _193
REMARK   75  A    between atoms: _193  and  _194
REMARK   76  A    between atoms: _196  and  _198
REMARK   77  A    between atoms: _198  and  _199
REMARK   78  A    between atoms: _198  and  _201
REMARK   79  A    between atoms: _201  and  _202
REMARK   80  A    between atoms: _202  and  _203
REMARK   81  A    between atoms: _203  and  _204
REMARK   82  A    between atoms: _204  and  _205
REMARK   83  A    between atoms: _209  and  _211
REMARK   84  A    between atoms: _211  and  _212
REMARK   85  A    between atoms: _211  and  _214
REMARK   86  A    between atoms: _214  and  _215
REMARK   87  A    between atoms: _218  and  _220
REMARK   88  A    between atoms: _220  and  _221
REMARK   89  A    between atoms: _220  and  _223
REMARK   90  A    between atoms: _223  and  _224
REMARK   91  A    between atoms: _224  and  _225
REMARK   92  A    between atoms: _230  and  _232
REMARK   93  A    between atoms: _232  and  _233
REMARK   94  A    between atoms: _232  and  _235
REMARK   95  A    between atoms: _235  and  _236
REMARK   96  A    between atoms: _236  and  _237
REMARK   97  A    between atoms: _239  and  _241
REMARK   98  A    between atoms: _241  and  _242
REMARK   99  A    between atoms: _241  and  _244
REMARK  100  A    between atoms: _244  and  _245
REMARK  101  A    between atoms: _247  and  _249
REMARK  102  A    between atoms: _249  and  _250
REMARK  103  A    between atoms: _249  and  _252
REMARK  104  A    between atoms: _252  and  _253
REMARK  105  A    between atoms: _256  and  _258
REMARK  106  A    between atoms: _258  and  _259
REMARK  107  A    between atoms: _261  and  _263
REMARK  108  A    between atoms: _263  and  _264
REMARK  109  A    between atoms: _263  and  _266
REMARK  110  A    between atoms: _266  and  _267
REMARK  111  A    between atoms: _267  and  _268
REMARK  112  A    between atoms: _268  and  _269
REMARK  113  A    between atoms: _269  and  _270
REMARK  114  A    between atoms: _274  and  _276
REMARK  115  A    between atoms: _276  and  _277
REMARK  116  A    between atoms: _276  and  _279
REMARK  117  A    between atoms: _279  and  _280
REMARK  118  A    between atoms: _282  and  _284
REMARK  119  A    between atoms: _284  and  _285
REMARK  120  A    between atoms: _284  and  _287
REMARK  121  A    between atoms: _287  and  _288
REMARK  122  A    between atoms: _288  and  _289
REMARK  123  A    between atoms: _292  and  _294
REMARK  124  A    between atoms: _294  and  _295
REMARK  125  A    between atoms: _294  and  _297
REMARK  126  A    between atoms: _297  and  _298
REMARK  127  A    between atoms: _301  and  _303
REMARK  128  A    between atoms: _303  and  _304
REMARK  129  A    between atoms: _307  and  _309
REMARK  130  A    between atoms: _309  and  _310
REMARK  131  A    between atoms: _309  and  _312
REMARK  132  A    between atoms: _312  and  _313
REMARK  133  A    between atoms: _324  and  _325
REMARK  134  A    between atoms: _330  and  _332
REMARK  135  A    between atoms: _332  and  _333
REMARK  136  A    between atoms: _336  and  _338
REMARK  137  A    between atoms: _338  and  _339
REMARK  138  A    between atoms: _338  and  _341
REMARK  139  A    between atoms: _341  and  _342
REMARK  140  A    between atoms: _347  and  _349
REMARK  141  A    between atoms: _349  and  _350
REMARK  142  A    between atoms: _349  and  _352
REMARK  143  A    between atoms: _352  and  _353
REMARK  144  A    between atoms: _358  and  _359
REMARK  145  A    between atoms: _361  and  _363
REMARK  146  A    between atoms: _363  and  _364
REMARK  147  A    between atoms: _367  and  _369
REMARK  148  A    between atoms: _369  and  _370
REMARK  149  A    between atoms: _369  and  _372
REMARK  150  A    between atoms: _372  and  _373
REMARK  151  A    between atoms: _373  and  _374
REMARK  152  A    between atoms: _379  and  _381
REMARK  153  A    between atoms: _381  and  _382
REMARK  154  A    between atoms: _381  and  _384
REMARK  155  A    between atoms: _384  and  _385
REMARK  156  A    between atoms: _385  and  _386
REMARK  157  A    between atoms: _391  and  _393
REMARK  158  A    between atoms: _393  and  _394
REMARK  159  A    between atoms: _393  and  _396
REMARK  160  A    between atoms: _396  and  _397
REMARK  161  A    between atoms: _397  and  _398
REMARK  162  A    between atoms: _400  and  _402
REMARK  163  A    between atoms: _402  and  _403
REMARK  164  A    between atoms: _405  and  _407
REMARK  165  A    between atoms: _407  and  _408
REMARK  166  A    between atoms: _411  and  _413
REMARK  167  A    between atoms: _413  and  _414
REMARK  168  A    between atoms: _413  and  _416
REMARK  169  A    between atoms: _416  and  _417
REMARK  170  A    between atoms: _427  and  _429
REMARK  171  A    between atoms: _429  and  _430
REMARK  172  A    between atoms: _429  and  _432
REMARK  173  A    between atoms: _432  and  _433
REMARK  174  A    between atoms: _433  and  _434
REMARK  175  A    between atoms: _437  and  _439
REMARK  176  A    between atoms: _439  and  _440
REMARK  177  A    between atoms: _442  and  _444
REMARK  178  A    between atoms: _444  and  _445
REMARK  179  A    between atoms: _444  and  _447
REMARK  180  A    between atoms: _450  and  _452
REMARK  181  A    between atoms: _452  and  _453
REMARK  182  A    between atoms: _452  and  _455
REMARK  183  A    between atoms: _455  and  _456
REMARK  184  A    between atoms: _459  and  _461
REMARK  185  A    between atoms: _461  and  _462
REMARK  186  A    between atoms: _461  and  _464
REMARK  187  A    between atoms: _464  and  _465
REMARK  188  A    between atoms: _468  and  _470
REMARK  189  A    between atoms: _470  and  _471
REMARK  190  A    between atoms: _470  and  _473
REMARK  191  A    between atoms: _473  and  _474
REMARK  192  A    between atoms: _474  and  _475
REMARK  193  A    between atoms: _477  and  _479
REMARK  194  A    between atoms: _479  and  _480
REMARK  195  A    between atoms: _482  and  _484
REMARK  196  A    between atoms: _484  and  _485
REMARK  197  A    between atoms: _487  and  _489
REMARK  198  A    between atoms: _489  and  _490
REMARK  199  A    between atoms: _489  and  _492
REMARK  200  A    between atoms: _495  and  _497
REMARK  201  A    between atoms: _497  and  _498
REMARK  202  A    between atoms: _497  and  _500
REMARK  203  A    between atoms: _500  and  _501
REMARK  204  A    between atoms: _504  and  _506
REMARK  205  A    between atoms: _506  and  _507
REMARK  206  A    between atoms: _506  and  _509
REMARK  207  A    between atoms: _509  and  _510
REMARK  208  A    between atoms: _515  and  _516
REMARK  209  A    between atoms: _518  and  _520
REMARK  210  A    between atoms: _520  and  _521
REMARK  211  A    between atoms: _520  and  _523
REMARK  212  A    between atoms: _523  and  _524
REMARK  213  A    between atoms: _529  and  _530
REMARK  214  A    between atoms: _532  and  _534
REMARK  215  A    between atoms: _534  and  _535
REMARK  216  A    between atoms: _538  and  _540
REMARK  217  A    between atoms: _540  and  _541
REMARK  218  A    between atoms: _540  and  _543
REMARK  219  A    between atoms: _543  and  _544
REMARK  220  A    between atoms: _550  and  _552
REMARK  221  A    between atoms: _552  and  _553
REMARK  222  A    between atoms: _552  and  _555
REMARK  223  A    between atoms: _555  and  _556
REMARK  224  A    between atoms: _558  and  _560
REMARK  225  A    between atoms: _560  and  _561
REMARK  226  A    between atoms: _560  and  _563
REMARK  227  A    between atoms: _563  and  _564
REMARK  228  A    between atoms: _567  and  _569
REMARK  229  A    between atoms: _569  and  _570
REMARK  230  A    between atoms: _569  and  _572
REMARK  231  A    between atoms: _572  and  _573
REMARK  232  A    between atoms: _576  and  _578
REMARK  233  A    between atoms: _578  and  _579
REMARK  234  A    between atoms: _578  and  _581
REMARK  235  A    between atoms: _581  and  _582
REMARK  236  A    between atoms: _592  and  _594
REMARK  237  A    between atoms: _594  and  _595
REMARK  238  A    between atoms: _594  and  _597
REMARK  239  A    between atoms: _597  and  _598
REMARK  240  A    between atoms: _598  and  _599
REMARK  241  A    between atoms: _601  and  _603
REMARK  242  A    between atoms: _603  and  _604
REMARK  243  A    between atoms: _603  and  _606
REMARK  244  A    between atoms: _606  and  _607
REMARK  245  A    between atoms: _610  and  _612
REMARK  246  A    between atoms: _612  and  _613
REMARK  247  A    between atoms: _612  and  _615
REMARK  248  A    between atoms: _615  and  _616
REMARK  249  A    between atoms: _619  and  _621
REMARK  250  A    between atoms: _621  and  _622
REMARK  251  A    between atoms: _625  and  _627
REMARK  252  A    between atoms: _627  and  _628
REMARK  253  A    between atoms: _627  and  _630
REMARK  254  A    between atoms: _630  and  _631
REMARK  255  A    between atoms: _634  and  _636
REMARK  256  A    between atoms: _636  and  _637
REMARK  257  A    between atoms: _639  and  _641
REMARK  258  A    between atoms: _641  and  _642
REMARK  259  A    between atoms: _641  and  _644
REMARK  260  A    between atoms: _644  and  _645
REMARK  261  A    between atoms: _650  and  _652
REMARK  262  A    between atoms: _652  and  _653
REMARK  263  A    between atoms: _652  and  _655
REMARK  264  A    between atoms: _655  and  _656
REMARK                            x       y       z     vdW  Elec       q    Type
REMARK                         _______ _______ _______ _____ _____    ______ ____
ROOT
ATOM      1  CA  GLN A   2       8.399 119.149  18.360  0.00  0.00    +0.149 C 
ENDROOT
BRANCH   1   3
ATOM      2  C   ALA A   1       9.658 121.054  19.188  0.00  0.00    +0.238 C 
ATOM      3  N   GLN A   2       9.294 119.781  19.329  0.00  0.00    -0.297 N 
ATOM      4  H   GLN A   2       9.650 119.230  20.136  0.00  0.00    +0.150 HD
ATOM      5  O   ALA A   1       9.096 121.823  18.407  0.00  0.00    -0.274 OA
BRANCH   2   6
ATOM      6  CA  ALA A   1      10.820 121.542  20.054  0.00  0.00    +0.145 C 
ATOM      7  CB  ALA A   1      12.146 121.120  19.444  0.00  0.00    +0.028 C 
BRANCH   6   8
ATOM      8  N   ALA A   1      10.736 121.089  21.436  0.00  0.00    -0.238 NA
ATOM      9  H   ALA A   1      11.335 120.299  21.752  0.00  0.00    +0.142 HD
ENDBRANCH   6   8
ENDBRANCH   2   6
ENDBRANCH   1   3
BRANCH   1  10
ATOM     10  C   GLN A   2       7.220 118.366  18.947  0.00  0.00    +0.241 C 
ATOM     11  N   GLN A   3       7.099 118.334  20.270  0.00  0.00    -0.298 N 
ATOM     12  H   GLN A   3       7.762 118.872  20.864  0.00  0.00    +0.150 HD
ATOM     13  O   GLN A   2       6.422 117.796  18.200  0.00  0.00    -0.273 OA
BRANCH  11  14
ATOM     14  CA  GLN A   3       6.038 117.545  20.894  0.00  0.00    +0.137 C 
BRANCH  14  15
ATOM     15  C   GLN A   3       4.821 118.380  21.292  0.00  0.00    +0.227 C 
ATOM     16  O   GLN A   3       4.851 119.116  22.279  0.00  0.00    -0.286 OA
ENDBRANCH  14  15
BRANCH  14  17
ATOM     17  CB  GLN A   3       6.576 116.771  22.101  0.00  0.00    +0.037 C 
BRANCH  17  18
ATOM     18  CG  GLN A   3       7.840 115.975  21.807  0.00  0.00    +0.087 C 
BRANCH  18  19
ATOM     19  CD  GLN A   3       8.480 115.410  23.060  0.00  0.00    +0.219 C 
ATOM     20  OE1 GLN A   3       7.903 114.558  23.736  0.00  0.00    -0.275 OA
ATOM     21  NE2 GLN A   3       9.678 115.887  23.380  0.00  0.00    -0.329 N 
ATOM     22 HE21 GLN A   3      10.165 115.541  24.231  0.00  0.00    +0.145 HD
ATOM     23 HE22 GLN A   3      10.129 116.607  22.779  0.00  0.00    +0.145 HD
ENDBRANCH  18  19
ENDBRANCH  17  18
ENDBRANCH  14  17
ENDBRANCH  11  14
ENDBRANCH   1  10
BRANCH   1  24
ATOM     24  CB  GLN A   2       9.207 118.234  17.436  0.00  0.00    +0.039 C 
BRANCH  24  25
ATOM     25  CG  GLN A   2      10.274 118.959  16.632  0.00  0.00    +0.087 C 
BRANCH  25  26
ATOM     26  CD  GLN A   2      11.258 118.010  15.988  0.00  0.00    +0.219 C 
ATOM     27  OE1 GLN A   2      11.445 116.885  16.451  0.00  0.00    -0.275 OA
ATOM     28  NE2 GLN A   2      11.896 118.458  14.913  0.00  0.00    -0.329 N 
ATOM     29 HE21 GLN A   2      11.706 119.417  14.557  0.00  0.00    +0.145 HD
ATOM     30 HE22 GLN A   2      12.586 117.850  14.427  0.00  0.00    +0.145 HD
ENDBRANCH  25  26
ENDBRANCH  24  25
ENDBRANCH   1  24
TORSDOF 12
REMARK  Name = ../refined-set-2016/4c1t/4c1t_pocket.pdb
REMARK  264 active torsions:
REMARK  status: ('A' for Active; 'I' for Inactive)
REMARK    1  A    between atoms: _1  and  _3
REMARK    2  A    between atoms: _3  and  _4
REMARK    3  A    between atoms: _3  and  _6
REMARK    4  A    between atoms: _6  and  _7
REMARK    5  A    between atoms: _12  and  _14
REMARK    6  A    between atoms: _14  and  _15
REMARK    7  A    between atoms: _14  and  _17
REMARK    8  A    between atoms: _17  and  _18
REMARK    9  A    between atoms: _23  and  _25
REMARK   10  A    between atoms: _25  and  _26
REMARK   11  A    between atoms: _29  and  _31
REMARK   12  A    between atoms: _31  and  _32
REMARK   13  A    between atoms: _31  and  _34
REMARK   14  A    between atoms: _34  and  _35
REMARK   15  A    between atoms: _37  and  _39
REMARK   16  A    between atoms: _39  and  _40
REMARK   17  A    between atoms: _43  and  _45
REMARK   18  A    between atoms: _45  and  _46
REMARK   19  A    between atoms: _48  and  _50
REMARK   20  A    between atoms: _50  and  _51
REMARK   21  A    between atoms: _50  and  _53
REMARK   22  A    between atoms: _53  and  _54
REMARK   23  A    between atoms: _54  and  _55
REMARK   24  A    between atoms: _58  and  _60
REMARK   25  A    between atoms: _60  and  _61
REMARK   26  A    between atoms: _63  and  _65
REMARK   27  A    between atoms: _65  and  _66
REMARK   28  A    between atoms: _65  and  _68
REMARK   29  A    between atoms: _68  and  _69
REMARK   30  A    between atoms: _69  and  _70
REMARK   31  A    between atoms: _70  and  _71
REMARK   32  A    between atoms: _80  and  _82
REMARK   33  A    between atoms: _82  and  _83
REMARK   34  A    between atoms: _82  and  _85
REMARK   35  A    between atoms: _85  and  _86
REMARK   36  A    between atoms: _86  and  _87
REMARK   37  A    between atoms: _92  and  _94
REMARK   38  A    between atoms: _94  and  _95
REMARK   39  A    between atoms: _94  and  _97
REMARK   40  A    between atoms: _97  and  _98
REMARK   41  A    between atoms: _103  and  _104
REMARK   42  A    between atoms: _106  and  _108
REMARK   43  A    between atoms: _108  and  _109
REMARK   44  A    between atoms: _108  and  _111
REMARK   45  A    between atoms: _111  and  _112
REMARK   46  A    between atoms: _122  and  _124
REMARK   47  A    between atoms: _124  and  _125
REMARK   48  A    between atoms: _124  and  _127
REMARK   49  A    between atoms: _127  and  _128
REMARK   50  A    between atoms: _131  and  _133
REMARK   51  A    between atoms: _133  and  _134
REMARK   52  A    between atoms: _133  and  _136
REMARK   53  A    between atoms: _136  and  _137
REMARK   54  A    between atoms: _137  and  _138
REMARK   55  A    between atoms: _143  and  _145
REMARK   56  A    between atoms: _145  and  _146
REMARK   57  A    between atoms: _145  and  _148
REMARK   58  A    between atoms: _148  and  _149
REMARK   59  A    between atoms: _154  and  _156
REMARK   60  A    between atoms: _156  and  _157
REMARK   61  A    between atoms: _156  and  _159
REMARK   62  A    between atoms: _159  and  _160
REMARK   63  A    between atoms: _160  and  _161
REMARK   64  A    between atoms: _164  and  _166
REMARK   65  A    between atoms: _166  and  _167
REMARK   66  A    between atoms: _166  and  _169
REMARK   67  A    between atoms: _169  and  _170
REMARK   68  A    between atoms: _173  and  _175
REMARK   69  A    between atoms: _175  and  _176
REMARK   70  A    between atoms: _175  and  _178
REMARK   71  A    between atoms: _178  and  _179
REMARK   72  A    between atoms: _185  and  _187
REMARK   73  A    between atoms: _187  and  _188
REMARK   74  A    between atoms: _191  and  _193
REMARK   75  A    between atoms: _193  and  _194
REMARK   76  A    between atoms: _196  and  _198
REMARK   77  A    between atoms: _198  and  _199
REMARK   78  A    between atoms: _198  and  _201
REMARK   79  A    between atoms: _201  and  _202
REMARK   80  A    between atoms: _202  and  _203
REMARK   81  A    between atoms: _203  and  _204
REMARK   82  A    between atoms: _204  and  _205
REMARK   83  A    between atoms: _209  and  _211
REMARK   84  A    between atoms: _211  and  _212
REMARK   85  A    between atoms: _211  and  _214
REMARK   86  A    between atoms: _214  and  _215
REMARK   87  A    between atoms: _218  and  _220
REMARK   88  A    between atoms: _220  and  _221
REMARK   89  A    between atoms: _220  and  _223
REMARK   90  A    between atoms: _223  and  _224
REMARK   91  A    between atoms: _224  and  _225
REMARK   92  A    between atoms: _230  and  _232
REMARK   93  A    between atoms: _232  and  _233
REMARK   94  A    between atoms: _232  and  _235
REMARK   95  A    between atoms: _235  and  _236
REMARK   96  A    between atoms: _236  and  _237
REMARK   97  A    between atoms: _239  and  _241
REMARK   98  A    between atoms: _241  and  _242
REMARK   99  A    between atoms: _241  and  _244
REMARK  100  A    between atoms: _244  and  _245
REMARK  101  A    between atoms: _247  and  _249
REMARK  102  A    between atoms: _249  and  _250
REMARK  103  A    between atoms: _249  and  _252
REMARK  104  A    between atoms: _252  and  _253
REMARK  105  A    between atoms: _256  and  _258
REMARK  106  A    between atoms: _258  and  _259
REMARK  107  A    between atoms: _261  and  _263
REMARK  108  A    between atoms: _263  and  _264
REMARK  109  A    between atoms: _263  and  _266
REMARK  110  A    between atoms: _266  and  _267
REMARK  111  A    between atoms: _267  and  _268
REMARK  112  A    between atoms: _268  and  _269
REMARK  113  A    between atoms: _269  and  _270
REMARK  114  A    between atoms: _274  and  _276
REMARK  115  A    between atoms: _276  and  _277
REMARK  116  A    between atoms: _276  and  _279
REMARK  117  A    between atoms: _279  and  _280
REMARK  118  A    between atoms: _282  and  _284
REMARK  119  A    between atoms: _284  and  _285
REMARK  120  A    between atoms: _284  and  _287
REMARK  121  A    between atoms: _287  and  _288
REMARK  122  A    between atoms: _288  and  _289
REMARK  123  A    between atoms: _292  and  _294
REMARK  124  A    between atoms: _294  and  _295
REMARK  125  A    between atoms: _294  and  _297
REMARK  126  A    between atoms: _297  and  _298
REMARK  127  A    between atoms: _301  and  _303
REMARK  128  A    between atoms: _303  and  _304
REMARK  129  A    between atoms: _307  and  _309
REMARK  130  A    between atoms: _309  and  _310
REMARK  131  A    between atoms: _309  and  _312
REMARK  132  A    between atoms: _312  and  _313
REMARK  133  A    between atoms: _324  and  _325
REMARK  134  A    between atoms: _330  and  _332
REMARK  135  A    between atoms: _332  and  _333
REMARK  136  A    between atoms: _336  and  _338
REMARK  137  A    between atoms: _338  and  _339
REMARK  138  A    between atoms: _338  and  _341
REMARK  139  A    between atoms: _341  and  _342
REMARK  140  A    between atoms: _347  and  _349
REMARK  141  A    between atoms: _349  and  _350
REMARK  142  A    between atoms: _349  and  _352
REMARK  143  A    between atoms: _352  and  _353
REMARK  144  A    between atoms: _358  and  _359
REMARK  145  A    between atoms: _361  and  _363
REMARK  146  A    between atoms: _363  and  _364
REMARK  147  A    between atoms: _367  and  _369
REMARK  148  A    between atoms: _369  and  _370
REMARK  149  A    between atoms: _369  and  _372
REMARK  150  A    between atoms: _372  and  _373
REMARK  151  A    between atoms: _373  and  _374
REMARK  152  A    between atoms: _379  and  _381
REMARK  153  A    between atoms: _381  and  _382
REMARK  154  A    between atoms: _381  and  _384
REMARK  155  A    between atoms: _384  and  _385
REMARK  156  A    between atoms: _385  and  _386
REMARK  157  A    between atoms: _391  and  _393
REMARK  158  A    between atoms: _393  and  _394
REMARK  159  A    between atoms: _393  and  _396
REMARK  160  A    between atoms: _396  and  _397
REMARK  161  A    between atoms: _397  and  _398
REMARK  162  A    between atoms: _400  and  _402
REMARK  163  A    between atoms: _402  and  _403
REMARK  164  A    between atoms: _405  and  _407
REMARK  165  A    between atoms: _407  and  _408
REMARK  166  A    between atoms: _411  and  _413
REMARK  167  A    between atoms: _413  and  _414
REMARK  168  A    between atoms: _413  and  _416
REMARK  169  A    between atoms: _416  and  _417
REMARK  170  A    between atoms: _427  and  _429
REMARK  171  A    between atoms: _429  and  _430
REMARK  172  A    between atoms: _429  and  _432
REMARK  173  A    between atoms: _432  and  _433
REMARK  174  A    between atoms: _433  and  _434
REMARK  175  A    between atoms: _437  and  _439
REMARK  176  A    between atoms: _439  and  _440
REMARK  177  A    between atoms: _442  and  _444
REMARK  178  A    between atoms: _444  and  _445
REMARK  179  A    between atoms: _444  and  _447
REMARK  180  A    between atoms: _450  and  _452
REMARK  181  A    between atoms: _452  and  _453
REMARK  182  A    between atoms: _452  and  _455
REMARK  183  A    between atoms: _455  and  _456
REMARK  184  A    between atoms: _459  and  _461
REMARK  185  A    between atoms: _461  and  _462
REMARK  186  A    between atoms: _461  and  _464
REMARK  187  A    between atoms: _464  and  _465
REMARK  188  A    between atoms: _468  and  _470
REMARK  189  A    between atoms: _470  and  _471
REMARK  190  A    between atoms: _470  and  _473
REMARK  191  A    between atoms: _473  and  _474
REMARK  192  A    between atoms: _474  and  _475
REMARK  193  A    between atoms: _477  and  _479
REMARK  194  A    between atoms: _479  and  _480
REMARK  195  A    between atoms: _482  and  _484
REMARK  196  A    between atoms: _484  and  _485
REMARK  197  A    between atoms: _487  and  _489
REMARK  198  A    between atoms: _489  and  _490
REMARK  199  A    between atoms: _489  and  _492
REMARK  200  A    between atoms: _495  and  _497
REMARK  201  A    between atoms: _497  and  _498
REMARK  202  A    between atoms: _497  and  _500
REMARK  203  A    between atoms: _500  and  _501
REMARK  204  A    between atoms: _504  and  _506
REMARK  205  A    between atoms: _506  and  _507
REMARK  206  A    between atoms: _506  and  _509
REMARK  207  A    between atoms: _509  and  _510
REMARK  208  A    between atoms: _515  and  _516
REMARK  209  A    between atoms: _518  and  _520
REMARK  210  A    between atoms: _520  and  _521
REMARK  211  A    between atoms: _520  and  _523
REMARK  212  A    between atoms: _523  and  _524
REMARK  213  A    between atoms: _529  and  _530
REMARK  214  A    between atoms: _532  and  _534
REMARK  215  A    between atoms: _534  and  _535
REMARK  216  A    between atoms: _538  and  _540
REMARK  217  A    between atoms: _540  and  _541
REMARK  218  A    between atoms: _540  and  _543
REMARK  219  A    between atoms: _543  and  _544
REMARK  220  A    between atoms: _550  and  _552
REMARK  221  A    between atoms: _552  and  _553
REMARK  222  A    between atoms: _552  and  _555
REMARK  223  A    between atoms: _555  and  _556
REMARK  224  A    between atoms: _558  and  _560
REMARK  225  A    between atoms: _560  and  _561
REMARK  226  A    between atoms: _560  and  _563
REMARK  227  A    between atoms: _563  and  _564
REMARK  228  A    between atoms: _567  and  _569
REMARK  229  A    between atoms: _569  and  _570
REMARK  230  A    between atoms: _569  and  _572
REMARK  231  A    between atoms: _572  and  _573
REMARK  232  A    between atoms: _576  and  _578
REMARK  233  A    between atoms: _578  and  _579
REMARK  234  A    between atoms: _578  and  _581
REMARK  235  A    between atoms: _581  and  _582
REMARK  236  A    between atoms: _592  and  _594
REMARK  237  A    between atoms: _594  and  _595
REMARK  238  A    between atoms: _594  and  _597
REMARK  239  A    between atoms: _597  and  _598
REMARK  240  A    between atoms: _598  and  _599
REMARK  241  A    between atoms: _601  and  _603
REMARK  242  A    between atoms: _603  and  _604
REMARK  243  A    between atoms: _603  and  _606
REMARK  244  A    between atoms: _606  and  _607
REMARK  245  A    between atoms: _610  and  _612
REMARK  246  A    between atoms: _612  and  _613
REMARK  247  A    between atoms: _612  and  _615
REMARK  248  A    between atoms: _615  and  _616
REMARK  249  A    between atoms: _619  and  _621
REMARK  250  A    between atoms: _621  and  _622
REMARK  251  A    between atoms: _625  and  _627
REMARK  252  A    between atoms: _627  and  _628
REMARK  253  A    between atoms: _627  and  _630
REMARK  254  A    between atoms: _630  and  _631
REMARK  255  A    between atoms: _634  and  _636
REMARK  256  A    between atoms: _636  and  _637
REMARK  257  A    between atoms: _639  and  _641
REMARK  258  A    between atoms: _641  and  _642
REMARK  259  A    between atoms: _641  and  _644
REMARK  260  A    between atoms: _644  and  _645
REMARK  261  A    between atoms: _650  and  _652
REMARK  262  A    between atoms: _652  and  _653
REMARK  263  A    between atoms: _652  and  _655
REMARK  264  A    between atoms: _655  and  _656
REMARK                            x       y       z     vdW  Elec       q    Type
REMARK                         _______ _______ _______ _____ _____    ______ ____
ROOT
ATOM      1  CA  TRP A   4      12.663 119.336   8.741  0.00  0.00    +0.153 C 
ENDROOT
BRANCH   1   2
ATOM      2  C   TRP A   4      11.399 120.071   9.166  0.00  0.00    +0.241 C 
ATOM      3  N   GLU A   5      11.550 121.377   9.364  0.00  0.00    -0.298 N 
ATOM      4  H   GLU A   5      12.462 121.809   9.113  0.00  0.00    +0.150 HD
ATOM      5  O   TRP A   4      10.329 119.476   9.306  0.00  0.00    -0.273 OA
BRANCH   3   6
ATOM      6  CA  GLU A   5      10.508 122.240   9.914  0.00  0.00    +0.137 C 
BRANCH   6   7
ATOM      7  C   GLU A   5       9.123 122.161   9.246  0.00  0.00    +0.227 C 
ATOM      8  O   GLU A   5       8.132 121.942   9.942  0.00  0.00    -0.286 OA
ENDBRANCH   6   7
BRANCH   6   9
ATOM      9  CB  GLU A   5      11.009 123.691   9.984  0.00  0.00    +0.039 C 
BRANCH   9  10
ATOM     10  CG  GLU A   5      10.046 124.674  10.622  0.00  0.00    +0.116 C 
BRANCH  10  11
ATOM     11  CD  GLU A   5      10.027 124.601  12.138  0.00  0.00    +0.365 C 
ATOM     12  OE2 GLU A   5       9.637 125.608  12.762  0.00  0.00    -0.246 OA
ATOM     13  OE1 GLU A   5      10.399 123.551  12.707  0.00  0.00    -0.246 OA
ENDBRANCH  10  11
ENDBRANCH   9  10
ENDBRANCH   6   9
ENDBRANCH   3   6
ENDBRANCH   1   2
BRANCH   1  15
ATOM     14  C   ALA A   3      13.766 120.987   7.337  0.00  0.00    +0.241 C 
ATOM     15  N   TRP A   4      13.702 120.326   8.488  0.00  0.00    -0.297 N 
ATOM     16  H   TRP A   4      14.410 120.520   9.225  0.00  0.00    +0.150 HD
ATOM     17  O   ALA A   3      13.084 120.682   6.357  0.00  0.00    -0.273 OA
BRANCH  14  18
ATOM     18  CA  ALA A   3      14.740 122.166   7.271  0.00  0.00    +0.149 C 
ATOM     19  CB  ALA A   3      15.449 122.204   5.920  0.00  0.00    +0.031 C 
BRANCH  18  22
ATOM     20  C   GLY A   2      15.370 122.597   9.593  0.00  0.00    +0.243 C 
ATOM     21  O   GLY A   2      14.204 122.795   9.934  0.00  0.00    -0.273 OA
ATOM     22  N   ALA A   3      15.712 122.219   8.364  0.00  0.00    -0.297 N 
ATOM     23  H   ALA A   3      16.699 121.953   8.174  0.00  0.00    +0.150 HD
BRANCH  20  24
ATOM     24  CA  GLY A   2      16.506 122.753  10.588  0.00  0.00    +0.176 C 
BRANCH  24  26
ATOM     25  C   MET A   1      15.897 124.762  11.827  0.00  0.00    +0.238 C 
ATOM     26  N   GLY A   2      16.082 123.444  11.792  0.00  0.00    -0.296 N 
ATOM     27  H   GLY A   2      15.917 122.891  12.657  0.00  0.00    +0.150 HD
ATOM     28  O   MET A   1      16.169 125.501  10.881  0.00  0.00    -0.274 OA
BRANCH  25  29
ATOM     29  CA  MET A   1      15.322 125.331  13.129  0.00  0.00    +0.146 C 
BRANCH  29  30
ATOM     30  N   MET A   1      15.479 126.780  13.231  0.00  0.00    -0.238 NA
ATOM     31  H   MET A   1      15.494 127.353  12.363  0.00  0.00    +0.142 HD
ENDBRANCH  29  30
BRANCH  29  32
ATOM     32  CB  MET A   1      13.834 124.979  13.246  0.00  0.00    +0.038 C 
BRANCH  32  33
ATOM     33  CG  MET A   1      13.530 123.533  13.596  0.00  0.00    +0.060 C 
BRANCH  33  34
ATOM     34  SD  MET A   1      14.446 122.952  15.032  0.00  0.00    -0.139 S 
ATOM     35  CE  MET A   1      13.874 124.084  16.296  0.00  0.00    +0.069 C 
ENDBRANCH  33  34
ENDBRANCH  32  33
ENDBRANCH  29  32
ENDBRANCH  25  29
ENDBRANCH  24  26
ENDBRANCH  20  24
ENDBRANCH  18  22
ENDBRANCH  14  18
ENDBRANCH   1  15
BRANCH   1  36
ATOM     36  CB  TRP A   4      13.094 118.379   9.850  0.00  0.00    +0.057 C 
BRANCH  36  37
ATOM     37  CG  TRP A   4      13.580 119.077  11.085  0.00  0.00    -0.002 A 
ATOM     38  CD1 TRP A   4      12.816 119.666  12.051  0.00  0.00    +0.068 A 
ATOM     39  NE1 TRP A   4      13.620 120.204  13.028  0.00  0.00    -0.352 N 
ATOM     40  HE1 TRP A   4      13.288 120.710  13.873  0.00  0.00    +0.166 HD
ATOM     41  CE2 TRP A   4      14.930 119.964  12.706  0.00  0.00    +0.056 A 
ATOM     42  CZ2 TRP A   4      16.099 120.308  13.383  0.00  0.00    +0.017 A 
ATOM     43  CH2 TRP A   4      17.287 119.932  12.819  0.00  0.00    +0.001 A 
ATOM     44  CZ3 TRP A   4      17.332 119.228  11.610  0.00  0.00    +0.000 A 
ATOM     45  CE3 TRP A   4      16.174 118.886  10.937  0.00  0.00    +0.001 A 
ATOM     46  CD2 TRP A   4      14.943 119.257  11.488  0.00  0.00    +0.013 A 
ENDBRANCH  36  37
ENDBRANCH   1  36
TORSDOF 18
REMARK  Name = ../refined-set-2016/4c1t/4c1t_pocket.pdb
REMARK  264 active torsions:
REMARK  status: ('A' for Active; 'I' for Inactive)
REMARK    1  A    between atoms: _1  and  _3
REMARK    2  A    between atoms: _3  and  _4
REMARK    3  A    between atoms: _3  and  _6
REMARK    4  A    between atoms: _6  and  _7
REMARK    5  A    between atoms: _12  and  _14
REMARK    6  A    between atoms: _14  and  _15
REMARK    7  A    between atoms: _14  and  _17
REMARK    8  A    between atoms: _17  and  _18
REMARK    9  A    between atoms: _23  and  _25
REMARK   10  A    between atoms: _25  and  _26
REMARK   11  A    between atoms: _29  and  _31
REMARK   12  A    between atoms: _31  and  _32
REMARK   13  A    between atoms: _31  and  _34
REMARK   14  A    between atoms: _34  and  _35
REMARK   15  A    between atoms: _37  and  _39
REMARK   16  A    between atoms: _39  and  _40
REMARK   17  A    between atoms: _43  and  _45
REMARK   18  A    between atoms: _45  and  _46
REMARK   19  A    between atoms: _48  and  _50
REMARK   20  A    between atoms: _50  and  _51
REMARK   21  A    between atoms: _50  and  _53
REMARK   22  A    between atoms: _53  and  _54
REMARK   23  A    between atoms: _54  and  _55
REMARK   24  A    between atoms: _58  and  _60
REMARK   25  A    between atoms: _60  and  _61
REMARK   26  A    between atoms: _63  and  _65
REMARK   27  A    between atoms: _65  and  _66
REMARK   28  A    between atoms: _65  and  _68
REMARK   29  A    between atoms: _68  and  _69
REMARK   30  A    between atoms: _69  and  _70
REMARK   31  A    between atoms: _70  and  _71
REMARK   32  A    between atoms: _80  and  _82
REMARK   33  A    between atoms: _82  and  _83
REMARK   34  A    between atoms: _82  and  _85
REMARK   35  A    between atoms: _85  and  _86
REMARK   36  A    between atoms: _86  and  _87
REMARK   37  A    between atoms: _92  and  _94
REMARK   38  A    between atoms: _94  and  _95
REMARK   39  A    between atoms: _94  and  _97
REMARK   40  A    between atoms: _97  and  _98
REMARK   41  A    between atoms: _103  and  _104
REMARK   42  A    between atoms: _106  and  _108
REMARK   43  A    between atoms: _108  and  _109
REMARK   44  A    between atoms: _108  and  _111
REMARK   45  A    between atoms: _111  and  _112
REMARK   46  A    between atoms: _122  and  _124
REMARK   47  A    between atoms: _124  and  _125
REMARK   48  A    between atoms: _124  and  _127
REMARK   49  A    between atoms: _127  and  _128
REMARK   50  A    between atoms: _131  and  _133
REMARK   51  A    between atoms: _133  and  _134
REMARK   52  A    between atoms: _133  and  _136
REMARK   53  A    between atoms: _136  and  _137
REMARK   54  A    between atoms: _137  and  _138
REMARK   55  A    between atoms: _143  and  _145
REMARK   56  A    between atoms: _145  and  _146
REMARK   57  A    between atoms: _145  and  _148
REMARK   58  A    between atoms: _148  and  _149
REMARK   59  A    between atoms: _154  and  _156
REMARK   60  A    between atoms: _156  and  _157
REMARK   61  A    between atoms: _156  and  _159
REMARK   62  A    between atoms: _159  and  _160
REMARK   63  A    between atoms: _160  and  _161
REMARK   64  A    between atoms: _164  and  _166
REMARK   65  A    between atoms: _166  and  _167
REMARK   66  A    between atoms: _166  and  _169
REMARK   67  A    between atoms: _169  and  _170
REMARK   68  A    between atoms: _173  and  _175
REMARK   69  A    between atoms: _175  and  _176
REMARK   70  A    between atoms: _175  and  _178
REMARK   71  A    between atoms: _178  and  _179
REMARK   72  A    between atoms: _185  and  _187
REMARK   73  A    between atoms: _187  and  _188
REMARK   74  A    between atoms: _191  and  _193
REMARK   75  A    between atoms: _193  and  _194
REMARK   76  A    between atoms: _196  and  _198
REMARK   77  A    between atoms: _198  and  _199
REMARK   78  A    between atoms: _198  and  _201
REMARK   79  A    between atoms: _201  and  _202
REMARK   80  A    between atoms: _202  and  _203
REMARK   81  A    between atoms: _203  and  _204
REMARK   82  A    between atoms: _204  and  _205
REMARK   83  A    between atoms: _209  and  _211
REMARK   84  A    between atoms: _211  and  _212
REMARK   85  A    between atoms: _211  and  _214
REMARK   86  A    between atoms: _214  and  _215
REMARK   87  A    between atoms: _218  and  _220
REMARK   88  A    between atoms: _220  and  _221
REMARK   89  A    between atoms: _220  and  _223
REMARK   90  A    between atoms: _223  and  _224
REMARK   91  A    between atoms: _224  and  _225
REMARK   92  A    between atoms: _230  and  _232
REMARK   93  A    between atoms: _232  and  _233
REMARK   94  A    between atoms: _232  and  _235
REMARK   95  A    between atoms: _235  and  _236
REMARK   96  A    between atoms: _236  and  _237
REMARK   97  A    between atoms: _239  and  _241
REMARK   98  A    between atoms: _241  and  _242
REMARK   99  A    between atoms: _241  and  _244
REMARK  100  A    between atoms: _244  and  _245
REMARK  101  A    between atoms: _247  and  _249
REMARK  102  A    between atoms: _249  and  _250
REMARK  103  A    between atoms: _249  and  _252
REMARK  104  A    between atoms: _252  and  _253
REMARK  105  A    between atoms: _256  and  _258
REMARK  106  A    between atoms: _258  and  _259
REMARK  107  A    between atoms: _261  and  _263
REMARK  108  A    between atoms: _263  and  _264
REMARK  109  A    between atoms: _263  and  _266
REMARK  110  A    between atoms: _266  and  _267
REMARK  111  A    between atoms: _267  and  _268
REMARK  112  A    between atoms: _268  and  _269
REMARK  113  A    between atoms: _269  and  _270
REMARK  114  A    between atoms: _274  and  _276
REMARK  115  A    between atoms: _276  and  _277
REMARK  116  A    between atoms: _276  and  _279
REMARK  117  A    between atoms: _279  and  _280
REMARK  118  A    between atoms: _282  and  _284
REMARK  119  A    between atoms: _284  and  _285
REMARK  120  A    between atoms: _284  and  _287
REMARK  121  A    between atoms: _287  and  _288
REMARK  122  A    between atoms: _288  and  _289
REMARK  123  A    between atoms: _292  and  _294
REMARK  124  A    between atoms: _294  and  _295
REMARK  125  A    between atoms: _294  and  _297
REMARK  126  A    between atoms: _297  and  _298
REMARK  127  A    between atoms: _301  and  _303
REMARK  128  A    between atoms: _303  and  _304
REMARK  129  A    between atoms: _307  and  _309
REMARK  130  A    between atoms: _309  and  _310
REMARK  131  A    between atoms: _309  and  _312
REMARK  132  A    between atoms: _312  and  _313
REMARK  133  A    between atoms: _324  and  _325
REMARK  134  A    between atoms: _330  and  _332
REMARK  135  A    between atoms: _332  and  _333
REMARK  136  A    between atoms: _336  and  _338
REMARK  137  A    between atoms: _338  and  _339
REMARK  138  A    between atoms: _338  and  _341
REMARK  139  A    between atoms: _341  and  _342
REMARK  140  A    between atoms: _347  and  _349
REMARK  141  A    between atoms: _349  and  _350
REMARK  142  A    between atoms: _349  and  _352
REMARK  143  A    between atoms: _352  and  _353
REMARK  144  A    between atoms: _358  and  _359
REMARK  145  A    between atoms: _361  and  _363
REMARK  146  A    between atoms: _363  and  _364
REMARK  147  A    between atoms: _367  and  _369
REMARK  148  A    between atoms: _369  and  _370
REMARK  149  A    between atoms: _369  and  _372
REMARK  150  A    between atoms: _372  and  _373
REMARK  151  A    between atoms: _373  and  _374
REMARK  152  A    between atoms: _379  and  _381
REMARK  153  A    between atoms: _381  and  _382
REMARK  154  A    between atoms: _381  and  _384
REMARK  155  A    between atoms: _384  and  _385
REMARK  156  A    between atoms: _385  and  _386
REMARK  157  A    between atoms: _391  and  _393
REMARK  158  A    between atoms: _393  and  _394
REMARK  159  A    between atoms: _393  and  _396
REMARK  160  A    between atoms: _396  and  _397
REMARK  161  A    between atoms: _397  and  _398
REMARK  162  A    between atoms: _400  and  _402
REMARK  163  A    between atoms: _402  and  _403
REMARK  164  A    between atoms: _405  and  _407
REMARK  165  A    between atoms: _407  and  _408
REMARK  166  A    between atoms: _411  and  _413
REMARK  167  A    between atoms: _413  and  _414
REMARK  168  A    between atoms: _413  and  _416
REMARK  169  A    between atoms: _416  and  _417
REMARK  170  A    between atoms: _427  and  _429
REMARK  171  A    between atoms: _429  and  _430
REMARK  172  A    between atoms: _429  and  _432
REMARK  173  A    between atoms: _432  and  _433
REMARK  174  A    between atoms: _433  and  _434
REMARK  175  A    between atoms: _437  and  _439
REMARK  176  A    between atoms: _439  and  _440
REMARK  177  A    between atoms: _442  and  _444
REMARK  178  A    between atoms: _444  and  _445
REMARK  179  A    between atoms: _444  and  _447
REMARK  180  A    between atoms: _450  and  _452
REMARK  181  A    between atoms: _452  and  _453
REMARK  182  A    between atoms: _452  and  _455
REMARK  183  A    between atoms: _455  and  _456
REMARK  184  A    between atoms: _459  and  _461
REMARK  185  A    between atoms: _461  and  _462
REMARK  186  A    between atoms: _461  and  _464
REMARK  187  A    between atoms: _464  and  _465
REMARK  188  A    between atoms: _468  and  _470
REMARK  189  A    between atoms: _470  and  _471
REMARK  190  A    between atoms: _470  and  _473
REMARK  191  A    between atoms: _473  and  _474
REMARK  192  A    between atoms: _474  and  _475
REMARK  193  A    between atoms: _477  and  _479
REMARK  194  A    between atoms: _479  and  _480
REMARK  195  A    between atoms: _482  and  _484
REMARK  196  A    between atoms: _484  and  _485
REMARK  197  A    between atoms: _487  and  _489
REMARK  198  A    between atoms: _489  and  _490
REMARK  199  A    between atoms: _489  and  _492
REMARK  200  A    between atoms: _495  and  _497
REMARK  201  A    between atoms: _497  and  _498
REMARK  202  A    between atoms: _497  and  _500
REMARK  203  A    between atoms: _500  and  _501
REMARK  204  A    between atoms: _504  and  _506
REMARK  205  A    between atoms: _506  and  _507
REMARK  206  A    between atoms: _506  and  _509
REMARK  207  A    between atoms: _509  and  _510
REMARK  208  A    between atoms: _515  and  _516
REMARK  209  A    between atoms: _518  and  _520
REMARK  210  A    between atoms: _520  and  _521
REMARK  211  A    between atoms: _520  and  _523
REMARK  212  A    between atoms: _523  and  _524
REMARK  213  A    between atoms: _529  and  _530
REMARK  214  A    between atoms: _532  and  _534
REMARK  215  A    between atoms: _534  and  _535
REMARK  216  A    between atoms: _538  and  _540
REMARK  217  A    between atoms: _540  and  _541
REMARK  218  A    between atoms: _540  and  _543
REMARK  219  A    between atoms: _543  and  _544
REMARK  220  A    between atoms: _550  and  _552
REMARK  221  A    between atoms: _552  and  _553
REMARK  222  A    between atoms: _552  and  _555
REMARK  223  A    between atoms: _555  and  _556
REMARK  224  A    between atoms: _558  and  _560
REMARK  225  A    between atoms: _560  and  _561
REMARK  226  A    between atoms: _560  and  _563
REMARK  227  A    between atoms: _563  and  _564
REMARK  228  A    between atoms: _567  and  _569
REMARK  229  A    between atoms: _569  and  _570
REMARK  230  A    between atoms: _569  and  _572
REMARK  231  A    between atoms: _572  and  _573
REMARK  232  A    between atoms: _576  and  _578
REMARK  233  A    between atoms: _578  and  _579
REMARK  234  A    between atoms: _578  and  _581
REMARK  235  A    between atoms: _581  and  _582
REMARK  236  A    between atoms: _592  and  _594
REMARK  237  A    between atoms: _594  and  _595
REMARK  238  A    between atoms: _594  and  _597
REMARK  239  A    between atoms: _597  and  _598
REMARK  240  A    between atoms: _598  and  _599
REMARK  241  A    between atoms: _601  and  _603
REMARK  242  A    between atoms: _603  and  _604
REMARK  243  A    between atoms: _603  and  _606
REMARK  244  A    between atoms: _606  and  _607
REMARK  245  A    between atoms: _610  and  _612
REMARK  246  A    between atoms: _612  and  _613
REMARK  247  A    between atoms: _612  and  _615
REMARK  248  A    between atoms: _615  and  _616
REMARK  249  A    between atoms: _619  and  _621
REMARK  250  A    between atoms: _621  and  _622
REMARK  251  A    between atoms: _625  and  _627
REMARK  252  A    between atoms: _627  and  _628
REMARK  253  A    between atoms: _627  and  _630
REMARK  254  A    between atoms: _630  and  _631
REMARK  255  A    between atoms: _634  and  _636
REMARK  256  A    between atoms: _636  and  _637
REMARK  257  A    between atoms: _639  and  _641
REMARK  258  A    between atoms: _641  and  _642
REMARK  259  A    between atoms: _641  and  _644
REMARK  260  A    between atoms: _644  and  _645
REMARK  261  A    between atoms: _650  and  _652
REMARK  262  A    between atoms: _652  and  _653
REMARK  263  A    between atoms: _652  and  _655
REMARK  264  A    between atoms: _655  and  _656
REMARK                            x       y       z     vdW  Elec       q    Type
REMARK                         _______ _______ _______ _____ _____    ______ ____
ROOT
ATOM      1  CA  VAL A   2       6.850 119.066  11.576  0.00  0.00    +0.148 C 
ENDROOT
BRANCH   1   3
ATOM      2  C   GLY A   1       6.482 118.487   9.243  0.00  0.00    +0.240 C 
ATOM      3  N   VAL A   2       7.236 119.064  10.172  0.00  0.00    -0.297 N 
ATOM      4  H   VAL A   2       8.124 119.526   9.890  0.00  0.00    +0.150 HD
ATOM      5  O   GLY A   1       5.447 117.874   9.503  0.00  0.00    -0.274 OA
BRANCH   2   6
ATOM      6  CA  GLY A   1       6.968 118.623   7.815  0.00  0.00    +0.169 C 
BRANCH   6   7
ATOM      7  N   GLY A   1       7.617 119.899   7.575  0.00  0.00    -0.236 NA
ATOM      8  H   GLY A   1       8.647 119.927   7.433  0.00  0.00    +0.142 HD
ENDBRANCH   6   7
ENDBRANCH   2   6
ENDBRANCH   1   3
BRANCH   1   9
ATOM      9  C   VAL A   2       5.661 120.001  11.775  0.00  0.00    +0.241 C 
ATOM     10  O   VAL A   2       4.738 119.700  12.537  0.00  0.00    -0.273 OA
ATOM     11  N   LEU A   3       5.684 121.131  11.074  0.00  0.00    -0.298 N 
ATOM     12  H   LEU A   3       6.484 121.315  10.435  0.00  0.00    +0.150 HD
BRANCH  11  13
ATOM     13  CA  LEU A   3       4.615 122.121  11.178  0.00  0.00    +0.137 C 
BRANCH  13  14
ATOM     14  C   LEU A   3       3.291 121.589  10.649  0.00  0.00    +0.227 C 
ATOM     15  O   LEU A   3       2.243 121.800  11.259  0.00  0.00    -0.286 OA
ENDBRANCH  13  14
BRANCH  13  16
ATOM     16  CB  LEU A   3       4.984 123.411  10.441  0.00  0.00    +0.028 C 
BRANCH  16  17
ATOM     17  CG  LEU A   3       6.211 124.176  10.944  0.00  0.00    +0.002 C 
ATOM     18  CD2 LEU A   3       6.015 124.607  12.383  0.00  0.00    +0.000 C 
ATOM     19  CD1 LEU A   3       6.496 125.375  10.055  0.00  0.00    +0.000 C 
ENDBRANCH  16  17
ENDBRANCH  13  16
ENDBRANCH  11  13
ENDBRANCH   1   9
BRANCH   1  20
ATOM     20  CB  VAL A   2       8.016 119.517  12.484  0.00  0.00    +0.027 C 
ATOM     21  CG2 VAL A   2       7.596 119.495  13.945  0.00  0.00    +0.002 C 
ATOM     22  CG1 VAL A   2       9.235 118.632  12.265  0.00  0.00    +0.002 C 
ENDBRANCH   1  20
TORSDOF 9
REMARK  Name = ../refined-set-2016/4c1t/4c1t_pocket.pdb
REMARK  264 active torsions:
REMARK  status: ('A' for Active; 'I' for Inactive)
REMARK    1  A    between atoms: _1  and  _3
REMARK    2  A    between atoms: _3  and  _4
REMARK    3  A    between atoms: _3  and  _6
REMARK    4  A    between atoms: _6  and  _7
REMARK    5  A    between atoms: _12  and  _14
REMARK    6  A    between atoms: _14  and  _15
REMARK    7  A    between atoms: _14  and  _17
REMARK    8  A    between atoms: _17  and  _18
REMARK    9  A    between atoms: _23  and  _25
REMARK   10  A    between atoms: _25  and  _26
REMARK   11  A    between atoms: _29  and  _31
REMARK   12  A    between atoms: _31  and  _32
REMARK   13  A    between atoms: _31  and  _34
REMARK   14  A    between atoms: _34  and  _35
REMARK   15  A    between atoms: _37  and  _39
REMARK   16  A    between atoms: _39  and  _40
REMARK   17  A    between atoms: _43  and  _45
REMARK   18  A    between atoms: _45  and  _46
REMARK   19  A    between atoms: _48  and  _50
REMARK   20  A    between atoms: _50  and  _51
REMARK   21  A    between atoms: _50  and  _53
REMARK   22  A    between atoms: _53  and  _54
REMARK   23  A    between atoms: _54  and  _55
REMARK   24  A    between atoms: _58  and  _60
REMARK   25  A    between atoms: _60  and  _61
REMARK   26  A    between atoms: _63  and  _65
REMARK   27  A    between atoms: _65  and  _66
REMARK   28  A    between atoms: _65  and  _68
REMARK   29  A    between atoms: _68  and  _69
REMARK   30  A    between atoms: _69  and  _70
REMARK   31  A    between atoms: _70  and  _71
REMARK   32  A    between atoms: _80  and  _82
REMARK   33  A    between atoms: _82  and  _83
REMARK   34  A    between atoms: _82  and  _85
REMARK   35  A    between atoms: _85  and  _86
REMARK   36  A    between atoms: _86  and  _87
REMARK   37  A    between atoms: _92  and  _94
REMARK   38  A    between atoms: _94  and  _95
REMARK   39  A    between atoms: _94  and  _97
REMARK   40  A    between atoms: _97  and  _98
REMARK   41  A    between atoms: _103  and  _104
REMARK   42  A    between atoms: _106  and  _108
REMARK   43  A    between atoms: _108  and  _109
REMARK   44  A    between atoms: _108  and  _111
REMARK   45  A    between atoms: _111  and  _112
REMARK   46  A    between atoms: _122  and  _124
REMARK   47  A    between atoms: _124  and  _125
REMARK   48  A    between atoms: _124  and  _127
REMARK   49  A    between atoms: _127  and  _128
REMARK   50  A    between atoms: _131  and  _133
REMARK   51  A    between atoms: _133  and  _134
REMARK   52  A    between atoms: _133  and  _136
REMARK   53  A    between atoms: _136  and  _137
REMARK   54  A    between atoms: _137  and  _138
REMARK   55  A    between atoms: _143  and  _145
REMARK   56  A    between atoms: _145  and  _146
REMARK   57  A    between atoms: _145  and  _148
REMARK   58  A    between atoms: _148  and  _149
REMARK   59  A    between atoms: _154  and  _156
REMARK   60  A    between atoms: _156  and  _157
REMARK   61  A    between atoms: _156  and  _159
REMARK   62  A    between atoms: _159  and  _160
REMARK   63  A    between atoms: _160  and  _161
REMARK   64  A    between atoms: _164  and  _166
REMARK   65  A    between atoms: _166  and  _167
REMARK   66  A    between atoms: _166  and  _169
REMARK   67  A    between atoms: _169  and  _170
REMARK   68  A    between atoms: _173  and  _175
REMARK   69  A    between atoms: _175  and  _176
REMARK   70  A    between atoms: _175  and  _178
REMARK   71  A    between atoms: _178  and  _179
REMARK   72  A    between atoms: _185  and  _187
REMARK   73  A    between atoms: _187  and  _188
REMARK   74  A    between atoms: _191  and  _193
REMARK   75  A    between atoms: _193  and  _194
REMARK   76  A    between atoms: _196  and  _198
REMARK   77  A    between atoms: _198  and  _199
REMARK   78  A    between atoms: _198  and  _201
REMARK   79  A    between atoms: _201  and  _202
REMARK   80  A    between atoms: _202  and  _203
REMARK   81  A    between atoms: _203  and  _204
REMARK   82  A    between atoms: _204  and  _205
REMARK   83  A    between atoms: _209  and  _211
REMARK   84  A    between atoms: _211  and  _212
REMARK   85  A    between atoms: _211  and  _214
REMARK   86  A    between atoms: _214  and  _215
REMARK   87  A    between atoms: _218  and  _220
REMARK   88  A    between atoms: _220  and  _221
REMARK   89  A    between atoms: _220  and  _223
REMARK   90  A    between atoms: _223  and  _224
REMARK   91  A    between atoms: _224  and  _225
REMARK   92  A    between atoms: _230  and  _232
REMARK   93  A    between atoms: _232  and  _233
REMARK   94  A    between atoms: _232  and  _235
REMARK   95  A    between atoms: _235  and  _236
REMARK   96  A    between atoms: _236  and  _237
REMARK   97  A    between atoms: _239  and  _241
REMARK   98  A    between atoms: _241  and  _242
REMARK   99  A    between atoms: _241  and  _244
REMARK  100  A    between atoms: _244  and  _245
REMARK  101  A    between atoms: _247  and  _249
REMARK  102  A    between atoms: _249  and  _250
REMARK  103  A    between atoms: _249  and  _252
REMARK  104  A    between atoms: _252  and  _253
REMARK  105  A    between atoms: _256  and  _258
REMARK  106  A    between atoms: _258  and  _259
REMARK  107  A    between atoms: _261  and  _263
REMARK  108  A    between atoms: _263  and  _264
REMARK  109  A    between atoms: _263  and  _266
REMARK  110  A    between atoms: _266  and  _267
REMARK  111  A    between atoms: _267  and  _268
REMARK  112  A    between atoms: _268  and  _269
REMARK  113  A    between atoms: _269  and  _270
REMARK  114  A    between atoms: _274  and  _276
REMARK  115  A    between atoms: _276  and  _277
REMARK  116  A    between atoms: _276  and  _279
REMARK  117  A    between atoms: _279  and  _280
REMARK  118  A    between atoms: _282  and  _284
REMARK  119  A    between atoms: _284  and  _285
REMARK  120  A    between atoms: _284  and  _287
REMARK  121  A    between atoms: _287  and  _288
REMARK  122  A    between atoms: _288  and  _289
REMARK  123  A    between atoms: _292  and  _294
REMARK  124  A    between atoms: _294  and  _295
REMARK  125  A    between atoms: _294  and  _297
REMARK  126  A    between atoms: _297  and  _298
REMARK  127  A    between atoms: _301  and  _303
REMARK  128  A    between atoms: _303  and  _304
REMARK  129  A    between atoms: _307  and  _309
REMARK  130  A    between atoms: _309  and  _310
REMARK  131  A    between atoms: _309  and  _312
REMARK  132  A    between atoms: _312  and  _313
REMARK  133  A    between atoms: _324  and  _325
REMARK  134  A    between atoms: _330  and  _332
REMARK  135  A    between atoms: _332  and  _333
REMARK  136  A    between atoms: _336  and  _338
REMARK  137  A    between atoms: _338  and  _339
REMARK  138  A    between atoms: _338  and  _341
REMARK  139  A    between atoms: _341  and  _342
REMARK  140  A    between atoms: _347  and  _349
REMARK  141  A    between atoms: _349  and  _350
REMARK  142  A    between atoms: _349  and  _352
REMARK  143  A    between atoms: _352  and  _353
REMARK  144  A    between atoms: _358  and  _359
REMARK  145  A    between atoms: _361  and  _363
REMARK  146  A    between atoms: _363  and  _364
REMARK  147  A    between atoms: _367  and  _369
REMARK  148  A    between atoms: _369  and  _370
REMARK  149  A    between atoms: _369  and  _372
REMARK  150  A    between atoms: _372  and  _373
REMARK  151  A    between atoms: _373  and  _374
REMARK  152  A    between atoms: _379  and  _381
REMARK  153  A    between atoms: _381  and  _382
REMARK  154  A    between atoms: _381  and  _384
REMARK  155  A    between atoms: _384  and  _385
REMARK  156  A    between atoms: _385  and  _386
REMARK  157  A    between atoms: _391  and  _393
REMARK  158  A    between atoms: _393  and  _394
REMARK  159  A    between atoms: _393  and  _396
REMARK  160  A    between atoms: _396  and  _397
REMARK  161  A    between atoms: _397  and  _398
REMARK  162  A    between atoms: _400  and  _402
REMARK  163  A    between atoms: _402  and  _403
REMARK  164  A    between atoms: _405  and  _407
REMARK  165  A    between atoms: _407  and  _408
REMARK  166  A    between atoms: _411  and  _413
REMARK  167  A    between atoms: _413  and  _414
REMARK  168  A    between atoms: _413  and  _416
REMARK  169  A    between atoms: _416  and  _417
REMARK  170  A    between atoms: _427  and  _429
REMARK  171  A    between atoms: _429  and  _430
REMARK  172  A    between atoms: _429  and  _432
REMARK  173  A    between atoms: _432  and  _433
REMARK  174  A    between atoms: _433  and  _434
REMARK  175  A    between atoms: _437  and  _439
REMARK  176  A    between atoms: _439  and  _440
REMARK  177  A    between atoms: _442  and  _444
REMARK  178  A    between atoms: _444  and  _445
REMARK  179  A    between atoms: _444  and  _447
REMARK  180  A    between atoms: _450  and  _452
REMARK  181  A    between atoms: _452  and  _453
REMARK  182  A    between atoms: _452  and  _455
REMARK  183  A    between atoms: _455  and  _456
REMARK  184  A    between atoms: _459  and  _461
REMARK  185  A    between atoms: _461  and  _462
REMARK  186  A    between atoms: _461  and  _464
REMARK  187  A    between atoms: _464  and  _465
REMARK  188  A    between atoms: _468  and  _470
REMARK  189  A    between atoms: _470  and  _471
REMARK  190  A    between atoms: _470  and  _473
REMARK  191  A    between atoms: _473  and  _474
REMARK  192  A    between atoms: _474  and  _475
REMARK  193  A    between atoms: _477  and  _479
REMARK  194  A    between atoms: _479  and  _480
REMARK  195  A    between atoms: _482  and  _484
REMARK  196  A    between atoms: _484  and  _485
REMARK  197  A    between atoms: _487  and  _489
REMARK  198  A    between atoms: _489  and  _490
REMARK  199  A    between atoms: _489  and  _492
REMARK  200  A    between atoms: _495  and  _497
REMARK  201  A    between atoms: _497  and  _498
REMARK  202  A    between atoms: _497  and  _500
REMARK  203  A    between atoms: _500  and  _501
REMARK  204  A    between atoms: _504  and  _506
REMARK  205  A    between atoms: _506  and  _507
REMARK  206  A    between atoms: _506  and  _509
REMARK  207  A    between atoms: _509  and  _510
REMARK  208  A    between atoms: _515  and  _516
REMARK  209  A    between atoms: _518  and  _520
REMARK  210  A    between atoms: _520  and  _521
REMARK  211  A    between atoms: _520  and  _523
REMARK  212  A    between atoms: _523  and  _524
REMARK  213  A    between atoms: _529  and  _530
REMARK  214  A    between atoms: _532  and  _534
REMARK  215  A    between atoms: _534  and  _535
REMARK  216  A    between atoms: _538  and  _540
REMARK  217  A    between atoms: _540  and  _541
REMARK  218  A    between atoms: _540  and  _543
REMARK  219  A    between atoms: _543  and  _544
REMARK  220  A    between atoms: _550  and  _552
REMARK  221  A    between atoms: _552  and  _553
REMARK  222  A    between atoms: _552  and  _555
REMARK  223  A    between atoms: _555  and  _556
REMARK  224  A    between atoms: _558  and  _560
REMARK  225  A    between atoms: _560  and  _561
REMARK  226  A    between atoms: _560  and  _563
REMARK  227  A    between atoms: _563  and  _564
REMARK  228  A    between atoms: _567  and  _569
REMARK  229  A    between atoms: _569  and  _570
REMARK  230  A    between atoms: _569  and  _572
REMARK  231  A    between atoms: _572  and  _573
REMARK  232  A    between atoms: _576  and  _578
REMARK  233  A    between atoms: _578  and  _579
REMARK  234  A    between atoms: _578  and  _581
REMARK  235  A    between atoms: _581  and  _582
REMARK  236  A    between atoms: _592  and  _594
REMARK  237  A    between atoms: _594  and  _595
REMARK  238  A    between atoms: _594  and  _597
REMARK  239  A    between atoms: _597  and  _598
REMARK  240  A    between atoms: _598  and  _599
REMARK  241  A    between atoms: _601  and  _603
REMARK  242  A    between atoms: _603  and  _604
REMARK  243  A    between atoms: _603  and  _606
REMARK  244  A    between atoms: _606  and  _607
REMARK  245  A    between atoms: _610  and  _612
REMARK  246  A    between atoms: _612  and  _613
REMARK  247  A    between atoms: _612  and  _615
REMARK  248  A    between atoms: _615  and  _616
REMARK  249  A    between atoms: _619  and  _621
REMARK  250  A    between atoms: _621  and  _622
REMARK  251  A    between atoms: _625  and  _627
REMARK  252  A    between atoms: _627  and  _628
REMARK  253  A    between atoms: _627  and  _630
REMARK  254  A    between atoms: _630  and  _631
REMARK  255  A    between atoms: _634  and  _636
REMARK  256  A    between atoms: _636  and  _637
REMARK  257  A    between atoms: _639  and  _641
REMARK  258  A    between atoms: _641  and  _642
REMARK  259  A    between atoms: _641  and  _644
REMARK  260  A    between atoms: _644  and  _645
REMARK  261  A    between atoms: _650  and  _652
REMARK  262  A    between atoms: _652  and  _653
REMARK  263  A    between atoms: _652  and  _655
REMARK  264  A    between atoms: _655  and  _656
REMARK                            x       y       z     vdW  Elec       q    Type
REMARK                         _______ _______ _______ _____ _____    ______ ____
ROOT
ATOM      1  CA  ASP A   1       1.687 117.801  11.646  0.00  0.00    +0.144 C 
ENDROOT
BRANCH   1   2
ATOM      2  N   ASP A   1       2.199 118.828  10.753  0.00  0.00    -0.239 NA
ATOM      3  H   ASP A   1       3.130 119.248  10.946  0.00  0.00    +0.142 HD
ENDBRANCH   1   2
BRANCH   1   4
ATOM      4  C   ASP A   1       1.011 118.435  12.860  0.00  0.00    +0.225 C 
ATOM      5  O   ASP A   1       0.221 117.792  13.553  0.00  0.00    -0.287 OA
ENDBRANCH   1   4
BRANCH   1   6
ATOM      6  CB  ASP A   1       2.823 116.877  12.093  0.00  0.00    +0.139 C 
BRANCH   6   7
ATOM      7  CG  ASP A   1       2.355 115.794  13.043  0.00  0.00    +0.367 C 
ATOM      8  OD2 ASP A   1       2.754 115.827  14.227  0.00  0.00    -0.246 OA
ATOM      9  OD1 ASP A   1       1.590 114.910  12.601  0.00  0.00    -0.246 OA
ENDBRANCH   6   7
ENDBRANCH   1   6
TORSDOF 4
REMARK  Name = ../refined-set-2016/4c1t/4c1t_pocket.pdb
REMARK  264 active torsions:
REMARK  status: ('A' for Active; 'I' for Inactive)
REMARK    1  A    between atoms: _1  and  _3
REMARK    2  A    between atoms: _3  and  _4
REMARK    3  A    between atoms: _3  and  _6
REMARK    4  A    between atoms: _6  and  _7
REMARK    5  A    between atoms: _12  and  _14
REMARK    6  A    between atoms: _14  and  _15
REMARK    7  A    between atoms: _14  and  _17
REMARK    8  A    between atoms: _17  and  _18
REMARK    9  A    between atoms: _23  and  _25
REMARK   10  A    between atoms: _25  and  _26
REMARK   11  A    between atoms: _29  and  _31
REMARK   12  A    between atoms: _31  and  _32
REMARK   13  A    between atoms: _31  and  _34
REMARK   14  A    between atoms: _34  and  _35
REMARK   15  A    between atoms: _37  and  _39
REMARK   16  A    between atoms: _39  and  _40
REMARK   17  A    between atoms: _43  and  _45
REMARK   18  A    between atoms: _45  and  _46
REMARK   19  A    between atoms: _48  and  _50
REMARK   20  A    between atoms: _50  and  _51
REMARK   21  A    between atoms: _50  and  _53
REMARK   22  A    between atoms: _53  and  _54
REMARK   23  A    between atoms: _54  and  _55
REMARK   24  A    between atoms: _58  and  _60
REMARK   25  A    between atoms: _60  and  _61
REMARK   26  A    between atoms: _63  and  _65
REMARK   27  A    between atoms: _65  and  _66
REMARK   28  A    between atoms: _65  and  _68
REMARK   29  A    between atoms: _68  and  _69
REMARK   30  A    between atoms: _69  and  _70
REMARK   31  A    between atoms: _70  and  _71
REMARK   32  A    between atoms: _80  and  _82
REMARK   33  A    between atoms: _82  and  _83
REMARK   34  A    between atoms: _82  and  _85
REMARK   35  A    between atoms: _85  and  _86
REMARK   36  A    between atoms: _86  and  _87
REMARK   37  A    between atoms: _92  and  _94
REMARK   38  A    between atoms: _94  and  _95
REMARK   39  A    between atoms: _94  and  _97
REMARK   40  A    between atoms: _97  and  _98
REMARK   41  A    between atoms: _103  and  _104
REMARK   42  A    between atoms: _106  and  _108
REMARK   43  A    between atoms: _108  and  _109
REMARK   44  A    between atoms: _108  and  _111
REMARK   45  A    between atoms: _111  and  _112
REMARK   46  A    between atoms: _122  and  _124
REMARK   47  A    between atoms: _124  and  _125
REMARK   48  A    between atoms: _124  and  _127
REMARK   49  A    between atoms: _127  and  _128
REMARK   50  A    between atoms: _131  and  _133
REMARK   51  A    between atoms: _133  and  _134
REMARK   52  A    between atoms: _133  and  _136
REMARK   53  A    between atoms: _136  and  _137
REMARK   54  A    between atoms: _137  and  _138
REMARK   55  A    between atoms: _143  and  _145
REMARK   56  A    between atoms: _145  and  _146
REMARK   57  A    between atoms: _145  and  _148
REMARK   58  A    between atoms: _148  and  _149
REMARK   59  A    between atoms: _154  and  _156
REMARK   60  A    between atoms: _156  and  _157
REMARK   61  A    between atoms: _156  and  _159
REMARK   62  A    between atoms: _159  and  _160
REMARK   63  A    between atoms: _160  and  _161
REMARK   64  A    between atoms: _164  and  _166
REMARK   65  A    between atoms: _166  and  _167
REMARK   66  A    between atoms: _166  and  _169
REMARK   67  A    between atoms: _169  and  _170
REMARK   68  A    between atoms: _173  and  _175
REMARK   69  A    between atoms: _175  and  _176
REMARK   70  A    between atoms: _175  and  _178
REMARK   71  A    between atoms: _178  and  _179
REMARK   72  A    between atoms: _185  and  _187
REMARK   73  A    between atoms: _187  and  _188
REMARK   74  A    between atoms: _191  and  _193
REMARK   75  A    between atoms: _193  and  _194
REMARK   76  A    between atoms: _196  and  _198
REMARK   77  A    between atoms: _198  and  _199
REMARK   78  A    between atoms: _198  and  _201
REMARK   79  A    between atoms: _201  and  _202
REMARK   80  A    between atoms: _202  and  _203
REMARK   81  A    between atoms: _203  and  _204
REMARK   82  A    between atoms: _204  and  _205
REMARK   83  A    between atoms: _209  and  _211
REMARK   84  A    between atoms: _211  and  _212
REMARK   85  A    between atoms: _211  and  _214
REMARK   86  A    between atoms: _214  and  _215
REMARK   87  A    between atoms: _218  and  _220
REMARK   88  A    between atoms: _220  and  _221
REMARK   89  A    between atoms: _220  and  _223
REMARK   90  A    between atoms: _223  and  _224
REMARK   91  A    between atoms: _224  and  _225
REMARK   92  A    between atoms: _230  and  _232
REMARK   93  A    between atoms: _232  and  _233
REMARK   94  A    between atoms: _232  and  _235
REMARK   95  A    between atoms: _235  and  _236
REMARK   96  A    between atoms: _236  and  _237
REMARK   97  A    between atoms: _239  and  _241
REMARK   98  A    between atoms: _241  and  _242
REMARK   99  A    between atoms: _241  and  _244
REMARK  100  A    between atoms: _244  and  _245
REMARK  101  A    between atoms: _247  and  _249
REMARK  102  A    between atoms: _249  and  _250
REMARK  103  A    between atoms: _249  and  _252
REMARK  104  A    between atoms: _252  and  _253
REMARK  105  A    between atoms: _256  and  _258
REMARK  106  A    between atoms: _258  and  _259
REMARK  107  A    between atoms: _261  and  _263
REMARK  108  A    between atoms: _263  and  _264
REMARK  109  A    between atoms: _263  and  _266
REMARK  110  A    between atoms: _266  and  _267
REMARK  111  A    between atoms: _267  and  _268
REMARK  112  A    between atoms: _268  and  _269
REMARK  113  A    between atoms: _269  and  _270
REMARK  114  A    between atoms: _274  and  _276
REMARK  115  A    between atoms: _276  and  _277
REMARK  116  A    between atoms: _276  and  _279
REMARK  117  A    between atoms: _279  and  _280
REMARK  118  A    between atoms: _282  and  _284
REMARK  119  A    between atoms: _284  and  _285
REMARK  120  A    between atoms: _284  and  _287
REMARK  121  A    between atoms: _287  and  _288
REMARK  122  A    between atoms: _288  and  _289
REMARK  123  A    between atoms: _292  and  _294
REMARK  124  A    between atoms: _294  and  _295
REMARK  125  A    between atoms: _294  and  _297
REMARK  126  A    between atoms: _297  and  _298
REMARK  127  A    between atoms: _301  and  _303
REMARK  128  A    between atoms: _303  and  _304
REMARK  129  A    between atoms: _307  and  _309
REMARK  130  A    between atoms: _309  and  _310
REMARK  131  A    between atoms: _309  and  _312
REMARK  132  A    between atoms: _312  and  _313
REMARK  133  A    between atoms: _324  and  _325
REMARK  134  A    between atoms: _330  and  _332
REMARK  135  A    between atoms: _332  and  _333
REMARK  136  A    between atoms: _336  and  _338
REMARK  137  A    between atoms: _338  and  _339
REMARK  138  A    between atoms: _338  and  _341
REMARK  139  A    between atoms: _341  and  _342
REMARK  140  A    between atoms: _347  and  _349
REMARK  141  A    between atoms: _349  and  _350
REMARK  142  A    between atoms: _349  and  _352
REMARK  143  A    between atoms: _352  and  _353
REMARK  144  A    between atoms: _358  and  _359
REMARK  145  A    between atoms: _361  and  _363
REMARK  146  A    between atoms: _363  and  _364
REMARK  147  A    between atoms: _367  and  _369
REMARK  148  A    between atoms: _369  and  _370
REMARK  149  A    between atoms: _369  and  _372
REMARK  150  A    between atoms: _372  and  _373
REMARK  151  A    between atoms: _373  and  _374
REMARK  152  A    between atoms: _379  and  _381
REMARK  153  A    between atoms: _381  and  _382
REMARK  154  A    between atoms: _381  and  _384
REMARK  155  A    between atoms: _384  and  _385
REMARK  156  A    between atoms: _385  and  _386
REMARK  157  A    between atoms: _391  and  _393
REMARK  158  A    between atoms: _393  and  _394
REMARK  159  A    between atoms: _393  and  _396
REMARK  160  A    between atoms: _396  and  _397
REMARK  161  A    between atoms: _397  and  _398
REMARK  162  A    between atoms: _400  and  _402
REMARK  163  A    between atoms: _402  and  _403
REMARK  164  A    between atoms: _405  and  _407
REMARK  165  A    between atoms: _407  and  _408
REMARK  166  A    between atoms: _411  and  _413
REMARK  167  A    between atoms: _413  and  _414
REMARK  168  A    between atoms: _413  and  _416
REMARK  169  A    between atoms: _416  and  _417
REMARK  170  A    between atoms: _427  and  _429
REMARK  171  A    between atoms: _429  and  _430
REMARK  172  A    between atoms: _429  and  _432
REMARK  173  A    between atoms: _432  and  _433
REMARK  174  A    between atoms: _433  and  _434
REMARK  175  A    between atoms: _437  and  _439
REMARK  176  A    between atoms: _439  and  _440
REMARK  177  A    between atoms: _442  and  _444
REMARK  178  A    between atoms: _444  and  _445
REMARK  179  A    between atoms: _444  and  _447
REMARK  180  A    between atoms: _450  and  _452
REMARK  181  A    between atoms: _452  and  _453
REMARK  182  A    between atoms: _452  and  _455
REMARK  183  A    between atoms: _455  and  _456
REMARK  184  A    between atoms: _459  and  _461
REMARK  185  A    between atoms: _461  and  _462
REMARK  186  A    between atoms: _461  and  _464
REMARK  187  A    between atoms: _464  and  _465
REMARK  188  A    between atoms: _468  and  _470
REMARK  189  A    between atoms: _470  and  _471
REMARK  190  A    between atoms: _470  and  _473
REMARK  191  A    between atoms: _473  and  _474
REMARK  192  A    between atoms: _474  and  _475
REMARK  193  A    between atoms: _477  and  _479
REMARK  194  A    between atoms: _479  and  _480
REMARK  195  A    between atoms: _482  and  _484
REMARK  196  A    between atoms: _484  and  _485
REMARK  197  A    between atoms: _487  and  _489
REMARK  198  A    between atoms: _489  and  _490
REMARK  199  A    between atoms: _489  and  _492
REMARK  200  A    between atoms: _495  and  _497
REMARK  201  A    between atoms: _497  and  _498
REMARK  202  A    between atoms: _497  and  _500
REMARK  203  A    between atoms: _500  and  _501
REMARK  204  A    between atoms: _504  and  _506
REMARK  205  A    between atoms: _506  and  _507
REMARK  206  A    between atoms: _506  and  _509
REMARK  207  A    between atoms: _509  and  _510
REMARK  208  A    between atoms: _515  and  _516
REMARK  209  A    between atoms: _518  and  _520
REMARK  210  A    between atoms: _520  and  _521
REMARK  211  A    between atoms: _520  and  _523
REMARK  212  A    between atoms: _523  and  _524
REMARK  213  A    between atoms: _529  and  _530
REMARK  214  A    between atoms: _532  and  _534
REMARK  215  A    between atoms: _534  and  _535
REMARK  216  A    between atoms: _538  and  _540
REMARK  217  A    between atoms: _540  and  _541
REMARK  218  A    between atoms: _540  and  _543
REMARK  219  A    between atoms: _543  and  _544
REMARK  220  A    between atoms: _550  and  _552
REMARK  221  A    between atoms: _552  and  _553
REMARK  222  A    between atoms: _552  and  _555
REMARK  223  A    between atoms: _555  and  _556
REMARK  224  A    between atoms: _558  and  _560
REMARK  225  A    between atoms: _560  and  _561
REMARK  226  A    between atoms: _560  and  _563
REMARK  227  A    between atoms: _563  and  _564
REMARK  228  A    between atoms: _567  and  _569
REMARK  229  A    between atoms: _569  and  _570
REMARK  230  A    between atoms: _569  and  _572
REMARK  231  A    between atoms: _572  and  _573
REMARK  232  A    between atoms: _576  and  _578
REMARK  233  A    between atoms: _578  and  _579
REMARK  234  A    between atoms: _578  and  _581
REMARK  235  A    between atoms: _581  and  _582
REMARK  236  A    between atoms: _592  and  _594
REMARK  237  A    between atoms: _594  and  _595
REMARK  238  A    between atoms: _594  and  _597
REMARK  239  A    between atoms: _597  and  _598
REMARK  240  A    between atoms: _598  and  _599
REMARK  241  A    between atoms: _601  and  _603
REMARK  242  A    between atoms: _603  and  _604
REMARK  243  A    between atoms: _603  and  _606
REMARK  244  A    between atoms: _606  and  _607
REMARK  245  A    between atoms: _610  and  _612
REMARK  246  A    between atoms: _612  and  _613
REMARK  247  A    between atoms: _612  and  _615
REMARK  248  A    between atoms: _615  and  _616
REMARK  249  A    between atoms: _619  and  _621
REMARK  250  A    between atoms: _621  and  _622
REMARK  251  A    between atoms: _625  and  _627
REMARK  252  A    between atoms: _627  and  _628
REMARK  253  A    between atoms: _627  and  _630
REMARK  254  A    between atoms: _630  and  _631
REMARK  255  A    between atoms: _634  and  _636
REMARK  256  A    between atoms: _636  and  _637
REMARK  257  A    between atoms: _639  and  _641
REMARK  258  A    between atoms: _641  and  _642
REMARK  259  A    between atoms: _641  and  _644
REMARK  260  A    between atoms: _644  and  _645
REMARK  261  A    between atoms: _650  and  _652
REMARK  262  A    between atoms: _652  and  _653
REMARK  263  A    between atoms: _652  and  _655
REMARK  264  A    between atoms: _655  and  _656
REMARK                            x       y       z     vdW  Elec       q    Type
REMARK                         _______ _______ _______ _____ _____    ______ ____
ROOT
ATOM      1  CA  VAL A   4      22.118 115.266   7.008  0.00  0.00    +0.149 C 
ENDROOT
BRANCH   1   2
ATOM      2  C   VAL A   4      21.683 113.965   7.660  0.00  0.00    +0.241 C 
ATOM      3  O   VAL A   4      22.444 113.351   8.407  0.00  0.00    -0.273 OA
ATOM      4  N   THR A   5      20.448 113.557   7.396  0.00  0.00    -0.295 N 
ATOM      5  H   THR A   5      19.849 114.121   6.760  0.00  0.00    +0.150 HD
BRANCH   4   6
ATOM      6  CA  THR A   5      19.918 112.335   7.981  0.00  0.00    +0.176 C 
BRANCH   6   7
ATOM      7  C   THR A   5      20.243 111.120   7.120  0.00  0.00    +0.243 C 
ATOM      8  N   TYR A   6      21.000 110.188   7.687  0.00  0.00    -0.298 N 
ATOM      9  H   TYR A   6      21.387 110.357   8.637  0.00  0.00    +0.150 HD
ATOM     10  O   THR A   5      19.829 111.036   5.965  0.00  0.00    -0.273 OA
BRANCH   8  11
ATOM     11  CA  TYR A   6      21.300 108.935   7.008  0.00  0.00    +0.141 C 
BRANCH  11  12
ATOM     12  C   TYR A   6      21.044 107.742   7.918  0.00  0.00    +0.227 C 
ATOM     13  O   TYR A   6      20.823 107.900   9.119  0.00  0.00    -0.286 OA
ENDBRANCH  11  12
BRANCH  11  14
ATOM     14  CB  TYR A   6      22.732 108.914   6.453  0.00  0.00    +0.054 C 
BRANCH  14  15
ATOM     15  CG  TYR A   6      23.823 109.318   7.415  0.00  0.00    -0.020 A 
ATOM     16  CD2 TYR A   6      24.620 108.362   8.028  0.00  0.00    -0.001 A 
ATOM     17  CE2 TYR A   6      25.635 108.727   8.892  0.00  0.00    +0.036 A 
ATOM     18  CZ  TYR A   6      25.865 110.064   9.149  0.00  0.00    +0.134 A 
ATOM     19  CE1 TYR A   6      25.096 111.031   8.541  0.00  0.00    +0.036 A 
ATOM     20  CD1 TYR A   6      24.089 110.656   7.673  0.00  0.00    -0.001 A 
BRANCH  18  21
ATOM     21  OH  TYR A   6      26.872 110.432  10.012  0.00  0.00    -0.506 OA
ATOM     22  HH  TYR A   6      26.699 110.041  10.905  0.00  0.00    +0.292 HD
ENDBRANCH  18  21
ENDBRANCH  14  15
ENDBRANCH  11  14
ENDBRANCH   8  11
ENDBRANCH   6   7
BRANCH   6  23
ATOM     23  CB  THR A   5      18.396 112.420   8.189  0.00  0.00    +0.137 C 
ATOM     24  CG2 THR A   5      17.860 111.097   8.702  0.00  0.00    +0.034 C 
BRANCH  23  25
ATOM     25  OG1 THR A   5      18.102 113.447   9.144  0.00  0.00    -0.382 OA
ATOM     26  HG1 THR A   5      17.123 113.501   9.277  0.00  0.00    +0.210 HD
ENDBRANCH  23  25
ENDBRANCH   6  23
ENDBRANCH   4   6
ENDBRANCH   1   2
BRANCH   1  28
ATOM     27  C   GLY A   3      21.827 117.490   7.953  0.00  0.00    +0.243 C 
ATOM     28  N   VAL A   4      22.289 116.252   8.061  0.00  0.00    -0.297 N 
ATOM     29  H   VAL A   4      22.791 115.977   8.929  0.00  0.00    +0.150 HD
ATOM     30  O   GLY A   3      21.362 117.949   6.909  0.00  0.00    -0.273 OA
BRANCH  27  31
ATOM     31  CA  GLY A   3      21.924 118.331   9.205  0.00  0.00    +0.176 C 
BRANCH  31  34
ATOM     32  C   GLY A   2      22.730 120.607   9.322  0.00  0.00    +0.243 C 
ATOM     33  O   GLY A   2      23.727 120.278   9.964  0.00  0.00    -0.273 OA
ATOM     34  N   GLY A   3      21.807 119.743   8.920  0.00  0.00    -0.295 N 
ATOM     35  H   GLY A   3      20.982 120.089   8.389  0.00  0.00    +0.150 HD
BRANCH  32  36
ATOM     36  CA  GLY A   2      22.486 122.047   8.942  0.00  0.00    +0.176 C 
BRANCH  36  38
ATOM     37  C   MET A   1      23.578 124.193   8.958  0.00  0.00    +0.238 C 
ATOM     38  N   GLY A   2      23.670 122.872   9.036  0.00  0.00    -0.296 N 
ATOM     39  H   GLY A   2      24.601 122.426   9.166  0.00  0.00    +0.150 HD
ATOM     40  O   MET A   1      22.507 124.779   8.804  0.00  0.00    -0.274 OA
BRANCH  37  41
ATOM     41  CA  MET A   1      24.876 124.972   9.058  0.00  0.00    +0.146 C 
BRANCH  41  42
ATOM     42  N   MET A   1      24.806 126.056   8.093  0.00  0.00    -0.238 NA
ATOM     43  H   MET A   1      23.958 126.658   8.074  0.00  0.00    +0.142 HD
ENDBRANCH  41  42
BRANCH  41  44
ATOM     44  CB  MET A   1      25.061 125.492  10.482  0.00  0.00    +0.038 C 
BRANCH  44  45
ATOM     45  CG  MET A   1      25.118 124.376  11.519  0.00  0.00    +0.060 C 
BRANCH  45  46
ATOM     46  SD  MET A   1      25.426 124.946  13.199  0.00  0.00    -0.139 S 
ATOM     47  CE  MET A   1      27.037 125.697  13.009  0.00  0.00    +0.069 C 
ENDBRANCH  45  46
ENDBRANCH  44  45
ENDBRANCH  41  44
ENDBRANCH  37  41
ENDBRANCH  36  38
ENDBRANCH  32  36
ENDBRANCH  31  34
ENDBRANCH  27  31
ENDBRANCH   1  28
BRANCH   1  48
ATOM     48  CB  VAL A   4      23.420 115.032   6.217  0.00  0.00    +0.027 C 
ATOM     49  CG2 VAL A   4      23.811 116.282   5.436  0.00  0.00    +0.002 C 
ATOM     50  CG1 VAL A   4      23.267 113.838   5.284  0.00  0.00    +0.002 C 
ENDBRANCH   1  48
TORSDOF 21
REMARK  Name = ../refined-set-2016/4c1t/4c1t_pocket.pdb
REMARK  264 active torsions:
REMARK  status: ('A' for Active; 'I' for Inactive)
REMARK    1  A    between atoms: _1  and  _3
REMARK    2  A    between atoms: _3  and  _4
REMARK    3  A    between atoms: _3  and  _6
REMARK    4  A    between atoms: _6  and  _7
REMARK    5  A    between atoms: _12  and  _14
REMARK    6  A    between atoms: _14  and  _15
REMARK    7  A    between atoms: _14  and  _17
REMARK    8  A    between atoms: _17  and  _18
REMARK    9  A    between atoms: _23  and  _25
REMARK   10  A    between atoms: _25  and  _26
REMARK   11  A    between atoms: _29  and  _31
REMARK   12  A    between atoms: _31  and  _32
REMARK   13  A    between atoms: _31  and  _34
REMARK   14  A    between atoms: _34  and  _35
REMARK   15  A    between atoms: _37  and  _39
REMARK   16  A    between atoms: _39  and  _40
REMARK   17  A    between atoms: _43  and  _45
REMARK   18  A    between atoms: _45  and  _46
REMARK   19  A    between atoms: _48  and  _50
REMARK   20  A    between atoms: _50  and  _51
REMARK   21  A    between atoms: _50  and  _53
REMARK   22  A    between atoms: _53  and  _54
REMARK   23  A    between atoms: _54  and  _55
REMARK   24  A    between atoms: _58  and  _60
REMARK   25  A    between atoms: _60  and  _61
REMARK   26  A    between atoms: _63  and  _65
REMARK   27  A    between atoms: _65  and  _66
REMARK   28  A    between atoms: _65  and  _68
REMARK   29  A    between atoms: _68  and  _69
REMARK   30  A    between atoms: _69  and  _70
REMARK   31  A    between atoms: _70  and  _71
REMARK   32  A    between atoms: _80  and  _82
REMARK   33  A    between atoms: _82  and  _83
REMARK   34  A    between atoms: _82  and  _85
REMARK   35  A    between atoms: _85  and  _86
REMARK   36  A    between atoms: _86  and  _87
REMARK   37  A    between atoms: _92  and  _94
REMARK   38  A    between atoms: _94  and  _95
REMARK   39  A    between atoms: _94  and  _97
REMARK   40  A    between atoms: _97  and  _98
REMARK   41  A    between atoms: _103  and  _104
REMARK   42  A    between atoms: _106  and  _108
REMARK   43  A    between atoms: _108  and  _109
REMARK   44  A    between atoms: _108  and  _111
REMARK   45  A    between atoms: _111  and  _112
REMARK   46  A    between atoms: _122  and  _124
REMARK   47  A    between atoms: _124  and  _125
REMARK   48  A    between atoms: _124  and  _127
REMARK   49  A    between atoms: _127  and  _128
REMARK   50  A    between atoms: _131  and  _133
REMARK   51  A    between atoms: _133  and  _134
REMARK   52  A    between atoms: _133  and  _136
REMARK   53  A    between atoms: _136  and  _137
REMARK   54  A    between atoms: _137  and  _138
REMARK   55  A    between atoms: _143  and  _145
REMARK   56  A    between atoms: _145  and  _146
REMARK   57  A    between atoms: _145  and  _148
REMARK   58  A    between atoms: _148  and  _149
REMARK   59  A    between atoms: _154  and  _156
REMARK   60  A    between atoms: _156  and  _157
REMARK   61  A    between atoms: _156  and  _159
REMARK   62  A    between atoms: _159  and  _160
REMARK   63  A    between atoms: _160  and  _161
REMARK   64  A    between atoms: _164  and  _166
REMARK   65  A    between atoms: _166  and  _167
REMARK   66  A    between atoms: _166  and  _169
REMARK   67  A    between atoms: _169  and  _170
REMARK   68  A    between atoms: _173  and  _175
REMARK   69  A    between atoms: _175  and  _176
REMARK   70  A    between atoms: _175  and  _178
REMARK   71  A    between atoms: _178  and  _179
REMARK   72  A    between atoms: _185  and  _187
REMARK   73  A    between atoms: _187  and  _188
REMARK   74  A    between atoms: _191  and  _193
REMARK   75  A    between atoms: _193  and  _194
REMARK   76  A    between atoms: _196  and  _198
REMARK   77  A    between atoms: _198  and  _199
REMARK   78  A    between atoms: _198  and  _201
REMARK   79  A    between atoms: _201  and  _202
REMARK   80  A    between atoms: _202  and  _203
REMARK   81  A    between atoms: _203  and  _204
REMARK   82  A    between atoms: _204  and  _205
REMARK   83  A    between atoms: _209  and  _211
REMARK   84  A    between atoms: _211  and  _212
REMARK   85  A    between atoms: _211  and  _214
REMARK   86  A    between atoms: _214  and  _215
REMARK   87  A    between atoms: _218  and  _220
REMARK   88  A    between atoms: _220  and  _221
REMARK   89  A    between atoms: _220  and  _223
REMARK   90  A    between atoms: _223  and  _224
REMARK   91  A    between atoms: _224  and  _225
REMARK   92  A    between atoms: _230  and  _232
REMARK   93  A    between atoms: _232  and  _233
REMARK   94  A    between atoms: _232  and  _235
REMARK   95  A    between atoms: _235  and  _236
REMARK   96  A    between atoms: _236  and  _237
REMARK   97  A    between atoms: _239  and  _241
REMARK   98  A    between atoms: _241  and  _242
REMARK   99  A    between atoms: _241  and  _244
REMARK  100  A    between atoms: _244  and  _245
REMARK  101  A    between atoms: _247  and  _249
REMARK  102  A    between atoms: _249  and  _250
REMARK  103  A    between atoms: _249  and  _252
REMARK  104  A    between atoms: _252  and  _253
REMARK  105  A    between atoms: _256  and  _258
REMARK  106  A    between atoms: _258  and  _259
REMARK  107  A    between atoms: _261  and  _263
REMARK  108  A    between atoms: _263  and  _264
REMARK  109  A    between atoms: _263  and  _266
REMARK  110  A    between atoms: _266  and  _267
REMARK  111  A    between atoms: _267  and  _268
REMARK  112  A    between atoms: _268  and  _269
REMARK  113  A    between atoms: _269  and  _270
REMARK  114  A    between atoms: _274  and  _276
REMARK  115  A    between atoms: _276  and  _277
REMARK  116  A    between atoms: _276  and  _279
REMARK  117  A    between atoms: _279  and  _280
REMARK  118  A    between atoms: _282  and  _284
REMARK  119  A    between atoms: _284  and  _285
REMARK  120  A    between atoms: _284  and  _287
REMARK  121  A    between atoms: _287  and  _288
REMARK  122  A    between atoms: _288  and  _289
REMARK  123  A    between atoms: _292  and  _294
REMARK  124  A    between atoms: _294  and  _295
REMARK  125  A    between atoms: _294  and  _297
REMARK  126  A    between atoms: _297  and  _298
REMARK  127  A    between atoms: _301  and  _303
REMARK  128  A    between atoms: _303  and  _304
REMARK  129  A    between atoms: _307  and  _309
REMARK  130  A    between atoms: _309  and  _310
REMARK  131  A    between atoms: _309  and  _312
REMARK  132  A    between atoms: _312  and  _313
REMARK  133  A    between atoms: _324  and  _325
REMARK  134  A    between atoms: _330  and  _332
REMARK  135  A    between atoms: _332  and  _333
REMARK  136  A    between atoms: _336  and  _338
REMARK  137  A    between atoms: _338  and  _339
REMARK  138  A    between atoms: _338  and  _341
REMARK  139  A    between atoms: _341  and  _342
REMARK  140  A    between atoms: _347  and  _349
REMARK  141  A    between atoms: _349  and  _350
REMARK  142  A    between atoms: _349  and  _352
REMARK  143  A    between atoms: _352  and  _353
REMARK  144  A    between atoms: _358  and  _359
REMARK  145  A    between atoms: _361  and  _363
REMARK  146  A    between atoms: _363  and  _364
REMARK  147  A    between atoms: _367  and  _369
REMARK  148  A    between atoms: _369  and  _370
REMARK  149  A    between atoms: _369  and  _372
REMARK  150  A    between atoms: _372  and  _373
REMARK  151  A    between atoms: _373  and  _374
REMARK  152  A    between atoms: _379  and  _381
REMARK  153  A    between atoms: _381  and  _382
REMARK  154  A    between atoms: _381  and  _384
REMARK  155  A    between atoms: _384  and  _385
REMARK  156  A    between atoms: _385  and  _386
REMARK  157  A    between atoms: _391  and  _393
REMARK  158  A    between atoms: _393  and  _394
REMARK  159  A    between atoms: _393  and  _396
REMARK  160  A    between atoms: _396  and  _397
REMARK  161  A    between atoms: _397  and  _398
REMARK  162  A    between atoms: _400  and  _402
REMARK  163  A    between atoms: _402  and  _403
REMARK  164  A    between atoms: _405  and  _407
REMARK  165  A    between atoms: _407  and  _408
REMARK  166  A    between atoms: _411  and  _413
REMARK  167  A    between atoms: _413  and  _414
REMARK  168  A    between atoms: _413  and  _416
REMARK  169  A    between atoms: _416  and  _417
REMARK  170  A    between atoms: _427  and  _429
REMARK  171  A    between atoms: _429  and  _430
REMARK  172  A    between atoms: _429  and  _432
REMARK  173  A    between atoms: _432  and  _433
REMARK  174  A    between atoms: _433  and  _434
REMARK  175  A    between atoms: _437  and  _439
REMARK  176  A    between atoms: _439  and  _440
REMARK  177  A    between atoms: _442  and  _444
REMARK  178  A    between atoms: _444  and  _445
REMARK  179  A    between atoms: _444  and  _447
REMARK  180  A    between atoms: _450  and  _452
REMARK  181  A    between atoms: _452  and  _453
REMARK  182  A    between atoms: _452  and  _455
REMARK  183  A    between atoms: _455  and  _456
REMARK  184  A    between atoms: _459  and  _461
REMARK  185  A    between atoms: _461  and  _462
REMARK  186  A    between atoms: _461  and  _464
REMARK  187  A    between atoms: _464  and  _465
REMARK  188  A    between atoms: _468  and  _470
REMARK  189  A    between atoms: _470  and  _471
REMARK  190  A    between atoms: _470  and  _473
REMARK  191  A    between atoms: _473  and  _474
REMARK  192  A    between atoms: _474  and  _475
REMARK  193  A    between atoms: _477  and  _479
REMARK  194  A    between atoms: _479  and  _480
REMARK  195  A    between atoms: _482  and  _484
REMARK  196  A    between atoms: _484  and  _485
REMARK  197  A    between atoms: _487  and  _489
REMARK  198  A    between atoms: _489  and  _490
REMARK  199  A    between atoms: _489  and  _492
REMARK  200  A    between atoms: _495  and  _497
REMARK  201  A    between atoms: _497  and  _498
REMARK  202  A    between atoms: _497  and  _500
REMARK  203  A    between atoms: _500  and  _501
REMARK  204  A    between atoms: _504  and  _506
REMARK  205  A    between atoms: _506  and  _507
REMARK  206  A    between atoms: _506  and  _509
REMARK  207  A    between atoms: _509  and  _510
REMARK  208  A    between atoms: _515  and  _516
REMARK  209  A    between atoms: _518  and  _520
REMARK  210  A    between atoms: _520  and  _521
REMARK  211  A    between atoms: _520  and  _523
REMARK  212  A    between atoms: _523  and  _524
REMARK  213  A    between atoms: _529  and  _530
REMARK  214  A    between atoms: _532  and  _534
REMARK  215  A    between atoms: _534  and  _535
REMARK  216  A    between atoms: _538  and  _540
REMARK  217  A    between atoms: _540  and  _541
REMARK  218  A    between atoms: _540  and  _543
REMARK  219  A    between atoms: _543  and  _544
REMARK  220  A    between atoms: _550  and  _552
REMARK  221  A    between atoms: _552  and  _553
REMARK  222  A    between atoms: _552  and  _555
REMARK  223  A    between atoms: _555  and  _556
REMARK  224  A    between atoms: _558  and  _560
REMARK  225  A    between atoms: _560  and  _561
REMARK  226  A    between atoms: _560  and  _563
REMARK  227  A    between atoms: _563  and  _564
REMARK  228  A    between atoms: _567  and  _569
REMARK  229  A    between atoms: _569  and  _570
REMARK  230  A    between atoms: _569  and  _572
REMARK  231  A    between atoms: _572  and  _573
REMARK  232  A    between atoms: _576  and  _578
REMARK  233  A    between atoms: _578  and  _579
REMARK  234  A    between atoms: _578  and  _581
REMARK  235  A    between atoms: _581  and  _582
REMARK  236  A    between atoms: _592  and  _594
REMARK  237  A    between atoms: _594  and  _595
REMARK  238  A    between atoms: _594  and  _597
REMARK  239  A    between atoms: _597  and  _598
REMARK  240  A    between atoms: _598  and  _599
REMARK  241  A    between atoms: _601  and  _603
REMARK  242  A    between atoms: _603  and  _604
REMARK  243  A    between atoms: _603  and  _606
REMARK  244  A    between atoms: _606  and  _607
REMARK  245  A    between atoms: _610  and  _612
REMARK  246  A    between atoms: _612  and  _613
REMARK  247  A    between atoms: _612  and  _615
REMARK  248  A    between atoms: _615  and  _616
REMARK  249  A    between atoms: _619  and  _621
REMARK  250  A    between atoms: _621  and  _622
REMARK  251  A    between atoms: _625  and  _627
REMARK  252  A    between atoms: _627  and  _628
REMARK  253  A    between atoms: _627  and  _630
REMARK  254  A    between atoms: _630  and  _631
REMARK  255  A    between atoms: _634  and  _636
REMARK  256  A    between atoms: _636  and  _637
REMARK  257  A    between atoms: _639  and  _641
REMARK  258  A    between atoms: _641  and  _642
REMARK  259  A    between atoms: _641  and  _644
REMARK  260  A    between atoms: _644  and  _645
REMARK  261  A    between atoms: _650  and  _652
REMARK  262  A    between atoms: _652  and  _653
REMARK  263  A    between atoms: _652  and  _655
REMARK  264  A    between atoms: _655  and  _656
REMARK                            x       y       z     vdW  Elec       q    Type
REMARK                         _______ _______ _______ _____ _____    ______ ____
ROOT
ATOM      1  CG  TYR A   1      12.109 110.613   2.901  0.00  0.00    -0.020 A 
ATOM      2  CD2 TYR A   1      12.253 109.576   3.812  0.00  0.00    -0.001 A 
ATOM      3  CE2 TYR A   1      12.795 109.791   5.063  0.00  0.00    +0.036 A 
ATOM      4  CZ  TYR A   1      13.202 111.058   5.419  0.00  0.00    +0.134 A 
ATOM      5  CE1 TYR A   1      13.074 112.108   4.534  0.00  0.00    +0.036 A 
ATOM      6  CD1 TYR A   1      12.533 111.882   3.282  0.00  0.00    -0.001 A 
ENDROOT
BRANCH   4   7
ATOM      7  OH  TYR A   1      13.742 111.269   6.667  0.00  0.00    -0.506 OA
ATOM      8  HH  TYR A   1      13.981 112.225   6.765  0.00  0.00    +0.292 HD
ENDBRANCH   4   7
BRANCH   1   9
ATOM      9  CB  TYR A   1      11.511 110.367   1.532  0.00  0.00    +0.051 C 
BRANCH   9  10
ATOM     10  CA  TYR A   1      10.041 110.778   1.421  0.00  0.00    +0.137 C 
BRANCH  10  11
ATOM     11  N   TYR A   1       9.460 110.288   0.181  0.00  0.00    -0.239 NA
ATOM     12  H   TYR A   1      10.078 109.847  -0.530  0.00  0.00    +0.142 HD
ENDBRANCH  10  11
BRANCH  10  13
ATOM     13  C   TYR A   1       9.918 112.296   1.484  0.00  0.00    +0.224 C 
ATOM     14  O   TYR A   1       9.538 112.855   2.513  0.00  0.00    -0.287 OA
ENDBRANCH  10  13
ENDBRANCH   9  10
ENDBRANCH   1   9
TORSDOF 5
REMARK  Name = ../refined-set-2016/4c1t/4c1t_pocket.pdb
REMARK  264 active torsions:
REMARK  status: ('A' for Active; 'I' for Inactive)
REMARK    1  A    between atoms: _1  and  _3
REMARK    2  A    between atoms: _3  and  _4
REMARK    3  A    between atoms: _3  and  _6
REMARK    4  A    between atoms: _6  and  _7
REMARK    5  A    between atoms: _12  and  _14
REMARK    6  A    between atoms: _14  and  _15
REMARK    7  A    between atoms: _14  and  _17
REMARK    8  A    between atoms: _17  and  _18
REMARK    9  A    between atoms: _23  and  _25
REMARK   10  A    between atoms: _25  and  _26
REMARK   11  A    between atoms: _29  and  _31
REMARK   12  A    between atoms: _31  and  _32
REMARK   13  A    between atoms: _31  and  _34
REMARK   14  A    between atoms: _34  and  _35
REMARK   15  A    between atoms: _37  and  _39
REMARK   16  A    between atoms: _39  and  _40
REMARK   17  A    between atoms: _43  and  _45
REMARK   18  A    between atoms: _45  and  _46
REMARK   19  A    between atoms: _48  and  _50
REMARK   20  A    between atoms: _50  and  _51
REMARK   21  A    between atoms: _50  and  _53
REMARK   22  A    between atoms: _53  and  _54
REMARK   23  A    between atoms: _54  and  _55
REMARK   24  A    between atoms: _58  and  _60
REMARK   25  A    between atoms: _60  and  _61
REMARK   26  A    between atoms: _63  and  _65
REMARK   27  A    between atoms: _65  and  _66
REMARK   28  A    between atoms: _65  and  _68
REMARK   29  A    between atoms: _68  and  _69
REMARK   30  A    between atoms: _69  and  _70
REMARK   31  A    between atoms: _70  and  _71
REMARK   32  A    between atoms: _80  and  _82
REMARK   33  A    between atoms: _82  and  _83
REMARK   34  A    between atoms: _82  and  _85
REMARK   35  A    between atoms: _85  and  _86
REMARK   36  A    between atoms: _86  and  _87
REMARK   37  A    between atoms: _92  and  _94
REMARK   38  A    between atoms: _94  and  _95
REMARK   39  A    between atoms: _94  and  _97
REMARK   40  A    between atoms: _97  and  _98
REMARK   41  A    between atoms: _103  and  _104
REMARK   42  A    between atoms: _106  and  _108
REMARK   43  A    between atoms: _108  and  _109
REMARK   44  A    between atoms: _108  and  _111
REMARK   45  A    between atoms: _111  and  _112
REMARK   46  A    between atoms: _122  and  _124
REMARK   47  A    between atoms: _124  and  _125
REMARK   48  A    between atoms: _124  and  _127
REMARK   49  A    between atoms: _127  and  _128
REMARK   50  A    between atoms: _131  and  _133
REMARK   51  A    between atoms: _133  and  _134
REMARK   52  A    between atoms: _133  and  _136
REMARK   53  A    between atoms: _136  and  _137
REMARK   54  A    between atoms: _137  and  _138
REMARK   55  A    between atoms: _143  and  _145
REMARK   56  A    between atoms: _145  and  _146
REMARK   57  A    between atoms: _145  and  _148
REMARK   58  A    between atoms: _148  and  _149
REMARK   59  A    between atoms: _154  and  _156
REMARK   60  A    between atoms: _156  and  _157
REMARK   61  A    between atoms: _156  and  _159
REMARK   62  A    between atoms: _159  and  _160
REMARK   63  A    between atoms: _160  and  _161
REMARK   64  A    between atoms: _164  and  _166
REMARK   65  A    between atoms: _166  and  _167
REMARK   66  A    between atoms: _166  and  _169
REMARK   67  A    between atoms: _169  and  _170
REMARK   68  A    between atoms: _173  and  _175
REMARK   69  A    between atoms: _175  and  _176
REMARK   70  A    between atoms: _175  and  _178
REMARK   71  A    between atoms: _178  and  _179
REMARK   72  A    between atoms: _185  and  _187
REMARK   73  A    between atoms: _187  and  _188
REMARK   74  A    between atoms: _191  and  _193
REMARK   75  A    between atoms: _193  and  _194
REMARK   76  A    between atoms: _196  and  _198
REMARK   77  A    between atoms: _198  and  _199
REMARK   78  A    between atoms: _198  and  _201
REMARK   79  A    between atoms: _201  and  _202
REMARK   80  A    between atoms: _202  and  _203
REMARK   81  A    between atoms: _203  and  _204
REMARK   82  A    between atoms: _204  and  _205
REMARK   83  A    between atoms: _209  and  _211
REMARK   84  A    between atoms: _211  and  _212
REMARK   85  A    between atoms: _211  and  _214
REMARK   86  A    between atoms: _214  and  _215
REMARK   87  A    between atoms: _218  and  _220
REMARK   88  A    between atoms: _220  and  _221
REMARK   89  A    between atoms: _220  and  _223
REMARK   90  A    between atoms: _223  and  _224
REMARK   91  A    between atoms: _224  and  _225
REMARK   92  A    between atoms: _230  and  _232
REMARK   93  A    between atoms: _232  and  _233
REMARK   94  A    between atoms: _232  and  _235
REMARK   95  A    between atoms: _235  and  _236
REMARK   96  A    between atoms: _236  and  _237
REMARK   97  A    between atoms: _239  and  _241
REMARK   98  A    between atoms: _241  and  _242
REMARK   99  A    between atoms: _241  and  _244
REMARK  100  A    between atoms: _244  and  _245
REMARK  101  A    between atoms: _247  and  _249
REMARK  102  A    between atoms: _249  and  _250
REMARK  103  A    between atoms: _249  and  _252
REMARK  104  A    between atoms: _252  and  _253
REMARK  105  A    between atoms: _256  and  _258
REMARK  106  A    between atoms: _258  and  _259
REMARK  107  A    between atoms: _261  and  _263
REMARK  108  A    between atoms: _263  and  _264
REMARK  109  A    between atoms: _263  and  _266
REMARK  110  A    between atoms: _266  and  _267
REMARK  111  A    between atoms: _267  and  _268
REMARK  112  A    between atoms: _268  and  _269
REMARK  113  A    between atoms: _269  and  _270
REMARK  114  A    between atoms: _274  and  _276
REMARK  115  A    between atoms: _276  and  _277
REMARK  116  A    between atoms: _276  and  _279
REMARK  117  A    between atoms: _279  and  _280
REMARK  118  A    between atoms: _282  and  _284
REMARK  119  A    between atoms: _284  and  _285
REMARK  120  A    between atoms: _284  and  _287
REMARK  121  A    between atoms: _287  and  _288
REMARK  122  A    between atoms: _288  and  _289
REMARK  123  A    between atoms: _292  and  _294
REMARK  124  A    between atoms: _294  and  _295
REMARK  125  A    between atoms: _294  and  _297
REMARK  126  A    between atoms: _297  and  _298
REMARK  127  A    between atoms: _301  and  _303
REMARK  128  A    between atoms: _303  and  _304
REMARK  129  A    between atoms: _307  and  _309
REMARK  130  A    between atoms: _309  and  _310
REMARK  131  A    between atoms: _309  and  _312
REMARK  132  A    between atoms: _312  and  _313
REMARK  133  A    between atoms: _324  and  _325
REMARK  134  A    between atoms: _330  and  _332
REMARK  135  A    between atoms: _332  and  _333
REMARK  136  A    between atoms: _336  and  _338
REMARK  137  A    between atoms: _338  and  _339
REMARK  138  A    between atoms: _338  and  _341
REMARK  139  A    between atoms: _341  and  _342
REMARK  140  A    between atoms: _347  and  _349
REMARK  141  A    between atoms: _349  and  _350
REMARK  142  A    between atoms: _349  and  _352
REMARK  143  A    between atoms: _352  and  _353
REMARK  144  A    between atoms: _358  and  _359
REMARK  145  A    between atoms: _361  and  _363
REMARK  146  A    between atoms: _363  and  _364
REMARK  147  A    between atoms: _367  and  _369
REMARK  148  A    between atoms: _369  and  _370
REMARK  149  A    between atoms: _369  and  _372
REMARK  150  A    between atoms: _372  and  _373
REMARK  151  A    between atoms: _373  and  _374
REMARK  152  A    between atoms: _379  and  _381
REMARK  153  A    between atoms: _381  and  _382
REMARK  154  A    between atoms: _381  and  _384
REMARK  155  A    between atoms: _384  and  _385
REMARK  156  A    between atoms: _385  and  _386
REMARK  157  A    between atoms: _391  and  _393
REMARK  158  A    between atoms: _393  and  _394
REMARK  159  A    between atoms: _393  and  _396
REMARK  160  A    between atoms: _396  and  _397
REMARK  161  A    between atoms: _397  and  _398
REMARK  162  A    between atoms: _400  and  _402
REMARK  163  A    between atoms: _402  and  _403
REMARK  164  A    between atoms: _405  and  _407
REMARK  165  A    between atoms: _407  and  _408
REMARK  166  A    between atoms: _411  and  _413
REMARK  167  A    between atoms: _413  and  _414
REMARK  168  A    between atoms: _413  and  _416
REMARK  169  A    between atoms: _416  and  _417
REMARK  170  A    between atoms: _427  and  _429
REMARK  171  A    between atoms: _429  and  _430
REMARK  172  A    between atoms: _429  and  _432
REMARK  173  A    between atoms: _432  and  _433
REMARK  174  A    between atoms: _433  and  _434
REMARK  175  A    between atoms: _437  and  _439
REMARK  176  A    between atoms: _439  and  _440
REMARK  177  A    between atoms: _442  and  _444
REMARK  178  A    between atoms: _444  and  _445
REMARK  179  A    between atoms: _444  and  _447
REMARK  180  A    between atoms: _450  and  _452
REMARK  181  A    between atoms: _452  and  _453
REMARK  182  A    between atoms: _452  and  _455
REMARK  183  A    between atoms: _455  and  _456
REMARK  184  A    between atoms: _459  and  _461
REMARK  185  A    between atoms: _461  and  _462
REMARK  186  A    between atoms: _461  and  _464
REMARK  187  A    between atoms: _464  and  _465
REMARK  188  A    between atoms: _468  and  _470
REMARK  189  A    between atoms: _470  and  _471
REMARK  190  A    between atoms: _470  and  _473
REMARK  191  A    between atoms: _473  and  _474
REMARK  192  A    between atoms: _474  and  _475
REMARK  193  A    between atoms: _477  and  _479
REMARK  194  A    between atoms: _479  and  _480
REMARK  195  A    between atoms: _482  and  _484
REMARK  196  A    between atoms: _484  and  _485
REMARK  197  A    between atoms: _487  and  _489
REMARK  198  A    between atoms: _489  and  _490
REMARK  199  A    between atoms: _489  and  _492
REMARK  200  A    between atoms: _495  and  _497
REMARK  201  A    between atoms: _497  and  _498
REMARK  202  A    between atoms: _497  and  _500
REMARK  203  A    between atoms: _500  and  _501
REMARK  204  A    between atoms: _504  and  _506
REMARK  205  A    between atoms: _506  and  _507
REMARK  206  A    between atoms: _506  and  _509
REMARK  207  A    between atoms: _509  and  _510
REMARK  208  A    between atoms: _515  and  _516
REMARK  209  A    between atoms: _518  and  _520
REMARK  210  A    between atoms: _520  and  _521
REMARK  211  A    between atoms: _520  and  _523
REMARK  212  A    between atoms: _523  and  _524
REMARK  213  A    between atoms: _529  and  _530
REMARK  214  A    between atoms: _532  and  _534
REMARK  215  A    between atoms: _534  and  _535
REMARK  216  A    between atoms: _538  and  _540
REMARK  217  A    between atoms: _540  and  _541
REMARK  218  A    between atoms: _540  and  _543
REMARK  219  A    between atoms: _543  and  _544
REMARK  220  A    between atoms: _550  and  _552
REMARK  221  A    between atoms: _552  and  _553
REMARK  222  A    between atoms: _552  and  _555
REMARK  223  A    between atoms: _555  and  _556
REMARK  224  A    between atoms: _558  and  _560
REMARK  225  A    between atoms: _560  and  _561
REMARK  226  A    between atoms: _560  and  _563
REMARK  227  A    between atoms: _563  and  _564
REMARK  228  A    between atoms: _567  and  _569
REMARK  229  A    between atoms: _569  and  _570
REMARK  230  A    between atoms: _569  and  _572
REMARK  231  A    between atoms: _572  and  _573
REMARK  232  A    between atoms: _576  and  _578
REMARK  233  A    between atoms: _578  and  _579
REMARK  234  A    between atoms: _578  and  _581
REMARK  235  A    between atoms: _581  and  _582
REMARK  236  A    between atoms: _592  and  _594
REMARK  237  A    between atoms: _594  and  _595
REMARK  238  A    between atoms: _594  and  _597
REMARK  239  A    between atoms: _597  and  _598
REMARK  240  A    between atoms: _598  and  _599
REMARK  241  A    between atoms: _601  and  _603
REMARK  242  A    between atoms: _603  and  _604
REMARK  243  A    between atoms: _603  and  _606
REMARK  244  A    between atoms: _606  and  _607
REMARK  245  A    between atoms: _610  and  _612
REMARK  246  A    between atoms: _612  and  _613
REMARK  247  A    between atoms: _612  and  _615
REMARK  248  A    between atoms: _615  and  _616
REMARK  249  A    between atoms: _619  and  _621
REMARK  250  A    between atoms: _621  and  _622
REMARK  251  A    between atoms: _625  and  _627
REMARK  252  A    between atoms: _627  and  _628
REMARK  253  A    between atoms: _627  and  _630
REMARK  254  A    between atoms: _630  and  _631
REMARK  255  A    between atoms: _634  and  _636
REMARK  256  A    between atoms: _636  and  _637
REMARK  257  A    between atoms: _639  and  _641
REMARK  258  A    between atoms: _641  and  _642
REMARK  259  A    between atoms: _641  and  _644
REMARK  260  A    between atoms: _644  and  _645
REMARK  261  A    between atoms: _650  and  _652
REMARK  262  A    between atoms: _652  and  _653
REMARK  263  A    between atoms: _652  and  _655
REMARK  264  A    between atoms: _655  and  _656
REMARK                            x       y       z     vdW  Elec       q    Type
REMARK                         _______ _______ _______ _____ _____    ______ ____
ROOT
ATOM      1  C   PHE A   2       8.314 116.222   5.111  0.00  0.00    +0.241 C 
ATOM      2  O   PHE A   2       8.791 116.979   5.955  0.00  0.00    -0.273 OA
ATOM      3  N   SER A   3       7.849 116.637   3.934  0.00  0.00    -0.295 N 
ATOM      4  H   SER A   3       7.390 115.947   3.306  0.00  0.00    +0.150 HD
ENDROOT
BRANCH   1   5
ATOM      5  CA  PHE A   2       8.233 114.726   5.386  0.00  0.00    +0.153 C 
BRANCH   5   8
ATOM      6  C   ALA A   1       6.271 113.611   4.476  0.00  0.00    +0.238 C 
ATOM      7  O   ALA A   1       5.582 113.921   5.449  0.00  0.00    -0.274 OA
ATOM      8  N   PHE A   2       7.537 113.989   4.337  0.00  0.00    -0.297 N 
ATOM      9  H   PHE A   2       8.044 113.754   3.460  0.00  0.00    +0.150 HD
BRANCH   6  10
ATOM     10  CA  ALA A   1       5.692 112.752   3.356  0.00  0.00    +0.145 C 
ATOM     11  CB  ALA A   1       5.963 111.276   3.626  0.00  0.00    +0.028 C 
BRANCH  10  12
ATOM     12  N   ALA A   1       6.193 113.133   2.037  0.00  0.00    -0.238 NA
ATOM     13  H   ALA A   1       6.824 112.482   1.527  0.00  0.00    +0.142 HD
ENDBRANCH  10  12
ENDBRANCH   6  10
ENDBRANCH   5   8
BRANCH   5  14
ATOM     14  CB  PHE A   2       9.646 114.171   5.581  0.00  0.00    +0.055 C 
BRANCH  14  15
ATOM     15  CG  PHE A   2       9.685 112.838   6.265  0.00  0.00    -0.020 A 
ATOM     16  CD2 PHE A   2       9.901 112.751   7.630  0.00  0.00    -0.004 A 
ATOM     17  CE2 PHE A   2       9.939 111.524   8.263  0.00  0.00    -0.000 A 
ATOM     18  CZ  PHE A   2       9.765 110.366   7.529  0.00  0.00    -0.000 A 
ATOM     19  CE1 PHE A   2       9.550 110.440   6.166  0.00  0.00    -0.000 A 
ATOM     20  CD1 PHE A   2       9.513 111.670   5.541  0.00  0.00    -0.004 A 
ENDBRANCH  14  15
ENDBRANCH   5  14
ENDBRANCH   1   5
BRANCH   3  21
ATOM     21  CA  SER A   3       7.960 118.027   3.492  0.00  0.00    +0.178 C 
BRANCH  21  22
ATOM     22  C   SER A   3       9.371 118.559   3.705  0.00  0.00    +0.243 C 
ATOM     23  O   SER A   3       9.570 119.598   4.336  0.00  0.00    -0.273 OA
ATOM     24  N   THR A   4      10.346 117.823   3.186  0.00  0.00    -0.296 N 
ATOM     25  H   THR A   4      10.100 116.987   2.619  0.00  0.00    +0.150 HD
BRANCH  24  26
ATOM     26  CA  THR A   4      11.748 118.151   3.386  0.00  0.00    +0.164 C 
BRANCH  26  27
ATOM     27  CB  THR A   4      12.398 117.196   4.405  0.00  0.00    +0.136 C 
ATOM     28  CG2 THR A   4      12.566 115.804   3.807  0.00  0.00    +0.034 C 
BRANCH  27  29
ATOM     29  OG1 THR A   4      13.674 117.710   4.805  0.00  0.00    -0.382 OA
ATOM     30  HG1 THR A   4      14.087 117.092   5.460  0.00  0.00    +0.210 HD
ENDBRANCH  27  29
ENDBRANCH  26  27
BRANCH  26  31
ATOM     31  C   THR A   4      12.513 118.072   2.071  0.00  0.00    +0.229 C 
ATOM     32  O   THR A   4      11.936 117.788   1.022  0.00  0.00    -0.286 OA
ENDBRANCH  26  31
ENDBRANCH  24  26
ENDBRANCH  21  22
BRANCH  21  33
ATOM     33  CB  SER A   3       6.939 118.913   4.204  0.00  0.00    +0.166 C 
BRANCH  33  34
ATOM     34  OG  SER A   3       5.620 118.559   3.829  0.00  0.00    -0.380 OA
ATOM     35  H   SER A   3       4.976 119.144   4.301  0.00  0.00    +0.211 HD
ENDBRANCH  33  34
ENDBRANCH  21  33
ENDBRANCH   3  21
TORSDOF 14
REMARK  Name = ../refined-set-2016/4c1t/4c1t_pocket.pdb
REMARK  264 active torsions:
REMARK  status: ('A' for Active; 'I' for Inactive)
REMARK    1  A    between atoms: _1  and  _3
REMARK    2  A    between atoms: _3  and  _4
REMARK    3  A    between atoms: _3  and  _6
REMARK    4  A    between atoms: _6  and  _7
REMARK    5  A    between atoms: _12  and  _14
REMARK    6  A    between atoms: _14  and  _15
REMARK    7  A    between atoms: _14  and  _17
REMARK    8  A    between atoms: _17  and  _18
REMARK    9  A    between atoms: _23  and  _25
REMARK   10  A    between atoms: _25  and  _26
REMARK   11  A    between atoms: _29  and  _31
REMARK   12  A    between atoms: _31  and  _32
REMARK   13  A    between atoms: _31  and  _34
REMARK   14  A    between atoms: _34  and  _35
REMARK   15  A    between atoms: _37  and  _39
REMARK   16  A    between atoms: _39  and  _40
REMARK   17  A    between atoms: _43  and  _45
REMARK   18  A    between atoms: _45  and  _46
REMARK   19  A    between atoms: _48  and  _50
REMARK   20  A    between atoms: _50  and  _51
REMARK   21  A    between atoms: _50  and  _53
REMARK   22  A    between atoms: _53  and  _54
REMARK   23  A    between atoms: _54  and  _55
REMARK   24  A    between atoms: _58  and  _60
REMARK   25  A    between atoms: _60  and  _61
REMARK   26  A    between atoms: _63  and  _65
REMARK   27  A    between atoms: _65  and  _66
REMARK   28  A    between atoms: _65  and  _68
REMARK   29  A    between atoms: _68  and  _69
REMARK   30  A    between atoms: _69  and  _70
REMARK   31  A    between atoms: _70  and  _71
REMARK   32  A    between atoms: _80  and  _82
REMARK   33  A    between atoms: _82  and  _83
REMARK   34  A    between atoms: _82  and  _85
REMARK   35  A    between atoms: _85  and  _86
REMARK   36  A    between atoms: _86  and  _87
REMARK   37  A    between atoms: _92  and  _94
REMARK   38  A    between atoms: _94  and  _95
REMARK   39  A    between atoms: _94  and  _97
REMARK   40  A    between atoms: _97  and  _98
REMARK   41  A    between atoms: _103  and  _104
REMARK   42  A    between atoms: _106  and  _108
REMARK   43  A    between atoms: _108  and  _109
REMARK   44  A    between atoms: _108  and  _111
REMARK   45  A    between atoms: _111  and  _112
REMARK   46  A    between atoms: _122  and  _124
REMARK   47  A    between atoms: _124  and  _125
REMARK   48  A    between atoms: _124  and  _127
REMARK   49  A    between atoms: _127  and  _128
REMARK   50  A    between atoms: _131  and  _133
REMARK   51  A    between atoms: _133  and  _134
REMARK   52  A    between atoms: _133  and  _136
REMARK   53  A    between atoms: _136  and  _137
REMARK   54  A    between atoms: _137  and  _138
REMARK   55  A    between atoms: _143  and  _145
REMARK   56  A    between atoms: _145  and  _146
REMARK   57  A    between atoms: _145  and  _148
REMARK   58  A    between atoms: _148  and  _149
REMARK   59  A    between atoms: _154  and  _156
REMARK   60  A    between atoms: _156  and  _157
REMARK   61  A    between atoms: _156  and  _159
REMARK   62  A    between atoms: _159  and  _160
REMARK   63  A    between atoms: _160  and  _161
REMARK   64  A    between atoms: _164  and  _166
REMARK   65  A    between atoms: _166  and  _167
REMARK   66  A    between atoms: _166  and  _169
REMARK   67  A    between atoms: _169  and  _170
REMARK   68  A    between atoms: _173  and  _175
REMARK   69  A    between atoms: _175  and  _176
REMARK   70  A    between atoms: _175  and  _178
REMARK   71  A    between atoms: _178  and  _179
REMARK   72  A    between atoms: _185  and  _187
REMARK   73  A    between atoms: _187  and  _188
REMARK   74  A    between atoms: _191  and  _193
REMARK   75  A    between atoms: _193  and  _194
REMARK   76  A    between atoms: _196  and  _198
REMARK   77  A    between atoms: _198  and  _199
REMARK   78  A    between atoms: _198  and  _201
REMARK   79  A    between atoms: _201  and  _202
REMARK   80  A    between atoms: _202  and  _203
REMARK   81  A    between atoms: _203  and  _204
REMARK   82  A    between atoms: _204  and  _205
REMARK   83  A    between atoms: _209  and  _211
REMARK   84  A    between atoms: _211  and  _212
REMARK   85  A    between atoms: _211  and  _214
REMARK   86  A    between atoms: _214  and  _215
REMARK   87  A    between atoms: _218  and  _220
REMARK   88  A    between atoms: _220  and  _221
REMARK   89  A    between atoms: _220  and  _223
REMARK   90  A    between atoms: _223  and  _224
REMARK   91  A    between atoms: _224  and  _225
REMARK   92  A    between atoms: _230  and  _232
REMARK   93  A    between atoms: _232  and  _233
REMARK   94  A    between atoms: _232  and  _235
REMARK   95  A    between atoms: _235  and  _236
REMARK   96  A    between atoms: _236  and  _237
REMARK   97  A    between atoms: _239  and  _241
REMARK   98  A    between atoms: _241  and  _242
REMARK   99  A    between atoms: _241  and  _244
REMARK  100  A    between atoms: _244  and  _245
REMARK  101  A    between atoms: _247  and  _249
REMARK  102  A    between atoms: _249  and  _250
REMARK  103  A    between atoms: _249  and  _252
REMARK  104  A    between atoms: _252  and  _253
REMARK  105  A    between atoms: _256  and  _258
REMARK  106  A    between atoms: _258  and  _259
REMARK  107  A    between atoms: _261  and  _263
REMARK  108  A    between atoms: _263  and  _264
REMARK  109  A    between atoms: _263  and  _266
REMARK  110  A    between atoms: _266  and  _267
REMARK  111  A    between atoms: _267  and  _268
REMARK  112  A    between atoms: _268  and  _269
REMARK  113  A    between atoms: _269  and  _270
REMARK  114  A    between atoms: _274  and  _276
REMARK  115  A    between atoms: _276  and  _277
REMARK  116  A    between atoms: _276  and  _279
REMARK  117  A    between atoms: _279  and  _280
REMARK  118  A    between atoms: _282  and  _284
REMARK  119  A    between atoms: _284  and  _285
REMARK  120  A    between atoms: _284  and  _287
REMARK  121  A    between atoms: _287  and  _288
REMARK  122  A    between atoms: _288  and  _289
REMARK  123  A    between atoms: _292  and  _294
REMARK  124  A    between atoms: _294  and  _295
REMARK  125  A    between atoms: _294  and  _297
REMARK  126  A    between atoms: _297  and  _298
REMARK  127  A    between atoms: _301  and  _303
REMARK  128  A    between atoms: _303  and  _304
REMARK  129  A    between atoms: _307  and  _309
REMARK  130  A    between atoms: _309  and  _310
REMARK  131  A    between atoms: _309  and  _312
REMARK  132  A    between atoms: _312  and  _313
REMARK  133  A    between atoms: _324  and  _325
REMARK  134  A    between atoms: _330  and  _332
REMARK  135  A    between atoms: _332  and  _333
REMARK  136  A    between atoms: _336  and  _338
REMARK  137  A    between atoms: _338  and  _339
REMARK  138  A    between atoms: _338  and  _341
REMARK  139  A    between atoms: _341  and  _342
REMARK  140  A    between atoms: _347  and  _349
REMARK  141  A    between atoms: _349  and  _350
REMARK  142  A    between atoms: _349  and  _352
REMARK  143  A    between atoms: _352  and  _353
REMARK  144  A    between atoms: _358  and  _359
REMARK  145  A    between atoms: _361  and  _363
REMARK  146  A    between atoms: _363  and  _364
REMARK  147  A    between atoms: _367  and  _369
REMARK  148  A    between atoms: _369  and  _370
REMARK  149  A    between atoms: _369  and  _372
REMARK  150  A    between atoms: _372  and  _373
REMARK  151  A    between atoms: _373  and  _374
REMARK  152  A    between atoms: _379  and  _381
REMARK  153  A    between atoms: _381  and  _382
REMARK  154  A    between atoms: _381  and  _384
REMARK  155  A    between atoms: _384  and  _385
REMARK  156  A    between atoms: _385  and  _386
REMARK  157  A    between atoms: _391  and  _393
REMARK  158  A    between atoms: _393  and  _394
REMARK  159  A    between atoms: _393  and  _396
REMARK  160  A    between atoms: _396  and  _397
REMARK  161  A    between atoms: _397  and  _398
REMARK  162  A    between atoms: _400  and  _402
REMARK  163  A    between atoms: _402  and  _403
REMARK  164  A    between atoms: _405  and  _407
REMARK  165  A    between atoms: _407  and  _408
REMARK  166  A    between atoms: _411  and  _413
REMARK  167  A    between atoms: _413  and  _414
REMARK  168  A    between atoms: _413  and  _416
REMARK  169  A    between atoms: _416  and  _417
REMARK  170  A    between atoms: _427  and  _429
REMARK  171  A    between atoms: _429  and  _430
REMARK  172  A    between atoms: _429  and  _432
REMARK  173  A    between atoms: _432  and  _433
REMARK  174  A    between atoms: _433  and  _434
REMARK  175  A    between atoms: _437  and  _439
REMARK  176  A    between atoms: _439  and  _440
REMARK  177  A    between atoms: _442  and  _444
REMARK  178  A    between atoms: _444  and  _445
REMARK  179  A    between atoms: _444  and  _447
REMARK  180  A    between atoms: _450  and  _452
REMARK  181  A    between atoms: _452  and  _453
REMARK  182  A    between atoms: _452  and  _455
REMARK  183  A    between atoms: _455  and  _456
REMARK  184  A    between atoms: _459  and  _461
REMARK  185  A    between atoms: _461  and  _462
REMARK  186  A    between atoms: _461  and  _464
REMARK  187  A    between atoms: _464  and  _465
REMARK  188  A    between atoms: _468  and  _470
REMARK  189  A    between atoms: _470  and  _471
REMARK  190  A    between atoms: _470  and  _473
REMARK  191  A    between atoms: _473  and  _474
REMARK  192  A    between atoms: _474  and  _475
REMARK  193  A    between atoms: _477  and  _479
REMARK  194  A    between atoms: _479  and  _480
REMARK  195  A    between atoms: _482  and  _484
REMARK  196  A    between atoms: _484  and  _485
REMARK  197  A    between atoms: _487  and  _489
REMARK  198  A    between atoms: _489  and  _490
REMARK  199  A    between atoms: _489  and  _492
REMARK  200  A    between atoms: _495  and  _497
REMARK  201  A    between atoms: _497  and  _498
REMARK  202  A    between atoms: _497  and  _500
REMARK  203  A    between atoms: _500  and  _501
REMARK  204  A    between atoms: _504  and  _506
REMARK  205  A    between atoms: _506  and  _507
REMARK  206  A    between atoms: _506  and  _509
REMARK  207  A    between atoms: _509  and  _510
REMARK  208  A    between atoms: _515  and  _516
REMARK  209  A    between atoms: _518  and  _520
REMARK  210  A    between atoms: _520  and  _521
REMARK  211  A    between atoms: _520  and  _523
REMARK  212  A    between atoms: _523  and  _524
REMARK  213  A    between atoms: _529  and  _530
REMARK  214  A    between atoms: _532  and  _534
REMARK  215  A    between atoms: _534  and  _535
REMARK  216  A    between atoms: _538  and  _540
REMARK  217  A    between atoms: _540  and  _541
REMARK  218  A    between atoms: _540  and  _543
REMARK  219  A    between atoms: _543  and  _544
REMARK  220  A    between atoms: _550  and  _552
REMARK  221  A    between atoms: _552  and  _553
REMARK  222  A    between atoms: _552  and  _555
REMARK  223  A    between atoms: _555  and  _556
REMARK  224  A    between atoms: _558  and  _560
REMARK  225  A    between atoms: _560  and  _561
REMARK  226  A    between atoms: _560  and  _563
REMARK  227  A    between atoms: _563  and  _564
REMARK  228  A    between atoms: _567  and  _569
REMARK  229  A    between atoms: _569  and  _570
REMARK  230  A    between atoms: _569  and  _572
REMARK  231  A    between atoms: _572  and  _573
REMARK  232  A    between atoms: _576  and  _578
REMARK  233  A    between atoms: _578  and  _579
REMARK  234  A    between atoms: _578  and  _581
REMARK  235  A    between atoms: _581  and  _582
REMARK  236  A    between atoms: _592  and  _594
REMARK  237  A    between atoms: _594  and  _595
REMARK  238  A    between atoms: _594  and  _597
REMARK  239  A    between atoms: _597  and  _598
REMARK  240  A    between atoms: _598  and  _599
REMARK  241  A    between atoms: _601  and  _603
REMARK  242  A    between atoms: _603  and  _604
REMARK  243  A    between atoms: _603  and  _606
REMARK  244  A    between atoms: _606  and  _607
REMARK  245  A    between atoms: _610  and  _612
REMARK  246  A    between atoms: _612  and  _613
REMARK  247  A    between atoms: _612  and  _615
REMARK  248  A    between atoms: _615  and  _616
REMARK  249  A    between atoms: _619  and  _621
REMARK  250  A    between atoms: _621  and  _622
REMARK  251  A    between atoms: _625  and  _627
REMARK  252  A    between atoms: _627  and  _628
REMARK  253  A    between atoms: _627  and  _630
REMARK  254  A    between atoms: _630  and  _631
REMARK  255  A    between atoms: _634  and  _636
REMARK  256  A    between atoms: _636  and  _637
REMARK  257  A    between atoms: _639  and  _641
REMARK  258  A    between atoms: _641  and  _642
REMARK  259  A    between atoms: _641  and  _644
REMARK  260  A    between atoms: _644  and  _645
REMARK  261  A    between atoms: _650  and  _652
REMARK  262  A    between atoms: _652  and  _653
REMARK  263  A    between atoms: _652  and  _655
REMARK  264  A    between atoms: _655  and  _656
REMARK                            x       y       z     vdW  Elec       q    Type
REMARK                         _______ _______ _______ _____ _____    ______ ____
ROOT
ATOM      1  CA  MET A   3      27.655 122.145  16.301  0.00  0.00    +0.149 C 
ENDROOT
BRANCH   1   3
ATOM      2  C   TRP A   2      26.310 120.931  14.680  0.00  0.00    +0.241 C 
ATOM      3  N   MET A   3      26.479 122.000  15.451  0.00  0.00    -0.297 N 
ATOM      4  H   MET A   3      25.757 122.749  15.448  0.00  0.00    +0.150 HD
ATOM      5  O   TRP A   2      27.068 119.960  14.701  0.00  0.00    -0.273 OA
BRANCH   2   6
ATOM      6  CA  TRP A   2      25.118 120.959  13.733  0.00  0.00    +0.153 C 
BRANCH   6   8
ATOM      7  C   LEU A   1      26.495 120.812  11.746  0.00  0.00    +0.238 C 
ATOM      8  N   TRP A   2      25.492 120.330  12.472  0.00  0.00    -0.297 N 
ATOM      9  H   TRP A   2      24.969 119.496  12.137  0.00  0.00    +0.150 HD
ATOM     10  O   LEU A   1      27.096 121.843  12.046  0.00  0.00    -0.274 OA
BRANCH   7  11
ATOM     11  CA  LEU A   1      26.878 120.039  10.492  0.00  0.00    +0.145 C 
BRANCH  11  12
ATOM     12  N   LEU A   1      27.901 120.804   9.799  0.00  0.00    -0.238 NA
ATOM     13  H   LEU A   1      28.900 120.529   9.890  0.00  0.00    +0.142 HD
ENDBRANCH  11  12
BRANCH  11  14
ATOM     14  CB  LEU A   1      27.393 118.644  10.848  0.00  0.00    +0.026 C 
BRANCH  14  15
ATOM     15  CG  LEU A   1      27.905 117.811   9.670  0.00  0.00    +0.002 C 
ATOM     16  CD2 LEU A   1      28.385 116.448  10.141  0.00  0.00    +0.000 C 
ATOM     17  CD1 LEU A   1      26.830 117.667   8.600  0.00  0.00    +0.000 C 
ENDBRANCH  14  15
ENDBRANCH  11  14
ENDBRANCH   7  11
ENDBRANCH   6   8
BRANCH   6  18
ATOM     18  CB  TRP A   2      23.923 120.252  14.365  0.00  0.00    +0.057 C 
BRANCH  18  19
ATOM     19  CG  TRP A   2      22.724 120.175  13.473  0.00  0.00    -0.002 A 
ATOM     20  CD1 TRP A   2      22.115 119.043  13.017  0.00  0.00    +0.068 A 
ATOM     21  NE1 TRP A   2      21.041 119.367  12.225  0.00  0.00    -0.352 N 
ATOM     22  CE2 TRP A   2      20.941 120.733  12.152  0.00  0.00    +0.056 A 
ATOM     23  CZ2 TRP A   2      20.022 121.530  11.472  0.00  0.00    +0.017 A 
ATOM     24  CH2 TRP A   2      20.165 122.886  11.580  0.00  0.00    +0.001 A 
ATOM     25  CZ3 TRP A   2      21.194 123.456  12.340  0.00  0.00    +0.000 A 
ATOM     26  CE3 TRP A   2      22.107 122.666  13.016  0.00  0.00    +0.001 A 
ATOM     27  HE1 TRP A   2      20.407 118.688  11.757  0.00  0.00    +0.166 HD
ATOM     28  CD2 TRP A   2      21.987 121.275  12.926  0.00  0.00    +0.013 A 
ENDBRANCH  18  19
ENDBRANCH   6  18
ENDBRANCH   2   6
ENDBRANCH   1   3
BRANCH   1  29
ATOM     29  C   MET A   3      27.783 121.030  17.339  0.00  0.00    +0.241 C 
ATOM     30  N   ASP A   4      26.677 120.683  17.990  0.00  0.00    -0.297 N 
ATOM     31  H   ASP A   4      25.780 121.162  17.772  0.00  0.00    +0.150 HD
ATOM     32  O   MET A   3      28.870 120.486  17.541  0.00  0.00    -0.273 OA
BRANCH  30  33
ATOM     33  CA  ASP A   4      26.708 119.635  19.009  0.00  0.00    +0.160 C 
BRANCH  33  34
ATOM     34  C   ASP A   4      27.031 118.257  18.434  0.00  0.00    +0.241 C 
ATOM     35  O   ASP A   4      27.766 117.483  19.044  0.00  0.00    -0.273 OA
ATOM     36  N   THR A   5      26.482 117.955  17.262  0.00  0.00    -0.295 N 
ATOM     37  H   THR A   5      25.855 118.644  16.800  0.00  0.00    +0.150 HD
BRANCH  36  38
ATOM     38  CA  THR A   5      26.741 116.675  16.611  0.00  0.00    +0.176 C 
BRANCH  38  39
ATOM     39  C   THR A   5      28.140 116.640  16.004  0.00  0.00    +0.243 C 
ATOM     40  N   ALA A   6      28.719 117.817  15.787  0.00  0.00    -0.298 N 
ATOM     41  H   ALA A   6      28.204 118.689  16.025  0.00  0.00    +0.150 HD
ATOM     42  O   THR A   5      28.685 115.569  15.741  0.00  0.00    -0.273 OA
BRANCH  40  43
ATOM     43  CA  ALA A   6      30.060 117.912  15.222  0.00  0.00    +0.137 C 
ATOM     44  CB  ALA A   6      30.210 119.195  14.422  0.00  0.00    +0.030 C 
BRANCH  43  45
ATOM     45  C   ALA A   6      31.135 117.826  16.302  0.00  0.00    +0.227 C 
ATOM     46  O   ALA A   6      32.268 117.433  16.029  0.00  0.00    -0.286 OA
ENDBRANCH  43  45
ENDBRANCH  40  43
ENDBRANCH  38  39
BRANCH  38  47
ATOM     47  CB  THR A   5      25.694 116.360  15.521  0.00  0.00    +0.137 C 
ATOM     48  CG2 THR A   5      24.285 116.404  16.099  0.00  0.00    +0.034 C 
BRANCH  47  49
ATOM     49  OG1 THR A   5      25.806 117.311  14.455  0.00  0.00    -0.382 OA
ATOM     50  HG1 THR A   5      25.648 118.222  14.809  0.00  0.00    +0.210 HD
ENDBRANCH  47  49
ENDBRANCH  38  47
ENDBRANCH  36  38
ENDBRANCH  33  34
BRANCH  33  51
ATOM     51  CB  ASP A   4      25.402 119.595  19.807  0.00  0.00    +0.143 C 
BRANCH  51  52
ATOM     52  CG  ASP A   4      24.185 119.344  18.936  0.00  0.00    +0.367 C 
ATOM     53  OD2 ASP A   4      23.117 119.020  19.495  0.00  0.00    -0.246 OA
ATOM     54  OD1 ASP A   4      24.291 119.476  17.698  0.00  0.00    -0.246 OA
ENDBRANCH  51  52
ENDBRANCH  33  51
ENDBRANCH  30  33
ENDBRANCH   1  29
BRANCH   1  55
ATOM     55  CB  MET A   3      27.669 123.516  16.982  0.00  0.00    +0.041 C 
BRANCH  55  56
ATOM     56  CG  MET A   3      28.838 123.712  17.934  0.00  0.00    +0.060 C 
BRANCH  56  57
ATOM     57  SD  MET A   3      29.032 125.415  18.484  0.00  0.00    -0.139 S 
ATOM     58  CE  MET A   3      29.314 126.241  16.922  0.00  0.00    +0.069 C 
ENDBRANCH  56  57
ENDBRANCH  55  56
ENDBRANCH   1  55
TORSDOF 23
REMARK  Name = ../refined-set-2016/4c1t/4c1t_pocket.pdb
REMARK  264 active torsions:
REMARK  status: ('A' for Active; 'I' for Inactive)
REMARK    1  A    between atoms: _1  and  _3
REMARK    2  A    between atoms: _3  and  _4
REMARK    3  A    between atoms: _3  and  _6
REMARK    4  A    between atoms: _6  and  _7
REMARK    5  A    between atoms: _12  and  _14
REMARK    6  A    between atoms: _14  and  _15
REMARK    7  A    between atoms: _14  and  _17
REMARK    8  A    between atoms: _17  and  _18
REMARK    9  A    between atoms: _23  and  _25
REMARK   10  A    between atoms: _25  and  _26
REMARK   11  A    between atoms: _29  and  _31
REMARK   12  A    between atoms: _31  and  _32
REMARK   13  A    between atoms: _31  and  _34
REMARK   14  A    between atoms: _34  and  _35
REMARK   15  A    between atoms: _37  and  _39
REMARK   16  A    between atoms: _39  and  _40
REMARK   17  A    between atoms: _43  and  _45
REMARK   18  A    between atoms: _45  and  _46
REMARK   19  A    between atoms: _48  and  _50
REMARK   20  A    between atoms: _50  and  _51
REMARK   21  A    between atoms: _50  and  _53
REMARK   22  A    between atoms: _53  and  _54
REMARK   23  A    between atoms: _54  and  _55
REMARK   24  A    between atoms: _58  and  _60
REMARK   25  A    between atoms: _60  and  _61
REMARK   26  A    between atoms: _63  and  _65
REMARK   27  A    between atoms: _65  and  _66
REMARK   28  A    between atoms: _65  and  _68
REMARK   29  A    between atoms: _68  and  _69
REMARK   30  A    between atoms: _69  and  _70
REMARK   31  A    between atoms: _70  and  _71
REMARK   32  A    between atoms: _80  and  _82
REMARK   33  A    between atoms: _82  and  _83
REMARK   34  A    between atoms: _82  and  _85
REMARK   35  A    between atoms: _85  and  _86
REMARK   36  A    between atoms: _86  and  _87
REMARK   37  A    between atoms: _92  and  _94
REMARK   38  A    between atoms: _94  and  _95
REMARK   39  A    between atoms: _94  and  _97
REMARK   40  A    between atoms: _97  and  _98
REMARK   41  A    between atoms: _103  and  _104
REMARK   42  A    between atoms: _106  and  _108
REMARK   43  A    between atoms: _108  and  _109
REMARK   44  A    between atoms: _108  and  _111
REMARK   45  A    between atoms: _111  and  _112
REMARK   46  A    between atoms: _122  and  _124
REMARK   47  A    between atoms: _124  and  _125
REMARK   48  A    between atoms: _124  and  _127
REMARK   49  A    between atoms: _127  and  _128
REMARK   50  A    between atoms: _131  and  _133
REMARK   51  A    between atoms: _133  and  _134
REMARK   52  A    between atoms: _133  and  _136
REMARK   53  A    between atoms: _136  and  _137
REMARK   54  A    between atoms: _137  and  _138
REMARK   55  A    between atoms: _143  and  _145
REMARK   56  A    between atoms: _145  and  _146
REMARK   57  A    between atoms: _145  and  _148
REMARK   58  A    between atoms: _148  and  _149
REMARK   59  A    between atoms: _154  and  _156
REMARK   60  A    between atoms: _156  and  _157
REMARK   61  A    between atoms: _156  and  _159
REMARK   62  A    between atoms: _159  and  _160
REMARK   63  A    between atoms: _160  and  _161
REMARK   64  A    between atoms: _164  and  _166
REMARK   65  A    between atoms: _166  and  _167
REMARK   66  A    between atoms: _166  and  _169
REMARK   67  A    between atoms: _169  and  _170
REMARK   68  A    between atoms: _173  and  _175
REMARK   69  A    between atoms: _175  and  _176
REMARK   70  A    between atoms: _175  and  _178
REMARK   71  A    between atoms: _178  and  _179
REMARK   72  A    between atoms: _185  and  _187
REMARK   73  A    between atoms: _187  and  _188
REMARK   74  A    between atoms: _191  and  _193
REMARK   75  A    between atoms: _193  and  _194
REMARK   76  A    between atoms: _196  and  _198
REMARK   77  A    between atoms: _198  and  _199
REMARK   78  A    between atoms: _198  and  _201
REMARK   79  A    between atoms: _201  and  _202
REMARK   80  A    between atoms: _202  and  _203
REMARK   81  A    between atoms: _203  and  _204
REMARK   82  A    between atoms: _204  and  _205
REMARK   83  A    between atoms: _209  and  _211
REMARK   84  A    between atoms: _211  and  _212
REMARK   85  A    between atoms: _211  and  _214
REMARK   86  A    between atoms: _214  and  _215
REMARK   87  A    between atoms: _218  and  _220
REMARK   88  A    between atoms: _220  and  _221
REMARK   89  A    between atoms: _220  and  _223
REMARK   90  A    between atoms: _223  and  _224
REMARK   91  A    between atoms: _224  and  _225
REMARK   92  A    between atoms: _230  and  _232
REMARK   93  A    between atoms: _232  and  _233
REMARK   94  A    between atoms: _232  and  _235
REMARK   95  A    between atoms: _235  and  _236
REMARK   96  A    between atoms: _236  and  _237
REMARK   97  A    between atoms: _239  and  _241
REMARK   98  A    between atoms: _241  and  _242
REMARK   99  A    between atoms: _241  and  _244
REMARK  100  A    between atoms: _244  and  _245
REMARK  101  A    between atoms: _247  and  _249
REMARK  102  A    between atoms: _249  and  _250
REMARK  103  A    between atoms: _249  and  _252
REMARK  104  A    between atoms: _252  and  _253
REMARK  105  A    between atoms: _256  and  _258
REMARK  106  A    between atoms: _258  and  _259
REMARK  107  A    between atoms: _261  and  _263
REMARK  108  A    between atoms: _263  and  _264
REMARK  109  A    between atoms: _263  and  _266
REMARK  110  A    between atoms: _266  and  _267
REMARK  111  A    between atoms: _267  and  _268
REMARK  112  A    between atoms: _268  and  _269
REMARK  113  A    between atoms: _269  and  _270
REMARK  114  A    between atoms: _274  and  _276
REMARK  115  A    between atoms: _276  and  _277
REMARK  116  A    between atoms: _276  and  _279
REMARK  117  A    between atoms: _279  and  _280
REMARK  118  A    between atoms: _282  and  _284
REMARK  119  A    between atoms: _284  and  _285
REMARK  120  A    between atoms: _284  and  _287
REMARK  121  A    between atoms: _287  and  _288
REMARK  122  A    between atoms: _288  and  _289
REMARK  123  A    between atoms: _292  and  _294
REMARK  124  A    between atoms: _294  and  _295
REMARK  125  A    between atoms: _294  and  _297
REMARK  126  A    between atoms: _297  and  _298
REMARK  127  A    between atoms: _301  and  _303
REMARK  128  A    between atoms: _303  and  _304
REMARK  129  A    between atoms: _307  and  _309
REMARK  130  A    between atoms: _309  and  _310
REMARK  131  A    between atoms: _309  and  _312
REMARK  132  A    between atoms: _312  and  _313
REMARK  133  A    between atoms: _324  and  _325
REMARK  134  A    between atoms: _330  and  _332
REMARK  135  A    between atoms: _332  and  _333
REMARK  136  A    between atoms: _336  and  _338
REMARK  137  A    between atoms: _338  and  _339
REMARK  138  A    between atoms: _338  and  _341
REMARK  139  A    between atoms: _341  and  _342
REMARK  140  A    between atoms: _347  and  _349
REMARK  141  A    between atoms: _349  and  _350
REMARK  142  A    between atoms: _349  and  _352
REMARK  143  A    between atoms: _352  and  _353
REMARK  144  A    between atoms: _358  and  _359
REMARK  145  A    between atoms: _361  and  _363
REMARK  146  A    between atoms: _363  and  _364
REMARK  147  A    between atoms: _367  and  _369
REMARK  148  A    between atoms: _369  and  _370
REMARK  149  A    between atoms: _369  and  _372
REMARK  150  A    between atoms: _372  and  _373
REMARK  151  A    between atoms: _373  and  _374
REMARK  152  A    between atoms: _379  and  _381
REMARK  153  A    between atoms: _381  and  _382
REMARK  154  A    between atoms: _381  and  _384
REMARK  155  A    between atoms: _384  and  _385
REMARK  156  A    between atoms: _385  and  _386
REMARK  157  A    between atoms: _391  and  _393
REMARK  158  A    between atoms: _393  and  _394
REMARK  159  A    between atoms: _393  and  _396
REMARK  160  A    between atoms: _396  and  _397
REMARK  161  A    between atoms: _397  and  _398
REMARK  162  A    between atoms: _400  and  _402
REMARK  163  A    between atoms: _402  and  _403
REMARK  164  A    between atoms: _405  and  _407
REMARK  165  A    between atoms: _407  and  _408
REMARK  166  A    between atoms: _411  and  _413
REMARK  167  A    between atoms: _413  and  _414
REMARK  168  A    between atoms: _413  and  _416
REMARK  169  A    between atoms: _416  and  _417
REMARK  170  A    between atoms: _427  and  _429
REMARK  171  A    between atoms: _429  and  _430
REMARK  172  A    between atoms: _429  and  _432
REMARK  173  A    between atoms: _432  and  _433
REMARK  174  A    between atoms: _433  and  _434
REMARK  175  A    between atoms: _437  and  _439
REMARK  176  A    between atoms: _439  and  _440
REMARK  177  A    between atoms: _442  and  _444
REMARK  178  A    between atoms: _444  and  _445
REMARK  179  A    between atoms: _444  and  _447
REMARK  180  A    between atoms: _450  and  _452
REMARK  181  A    between atoms: _452  and  _453
REMARK  182  A    between atoms: _452  and  _455
REMARK  183  A    between atoms: _455  and  _456
REMARK  184  A    between atoms: _459  and  _461
REMARK  185  A    between atoms: _461  and  _462
REMARK  186  A    between atoms: _461  and  _464
REMARK  187  A    between atoms: _464  and  _465
REMARK  188  A    between atoms: _468  and  _470
REMARK  189  A    between atoms: _470  and  _471
REMARK  190  A    between atoms: _470  and  _473
REMARK  191  A    between atoms: _473  and  _474
REMARK  192  A    between atoms: _474  and  _475
REMARK  193  A    between atoms: _477  and  _479
REMARK  194  A    between atoms: _479  and  _480
REMARK  195  A    between atoms: _482  and  _484
REMARK  196  A    between atoms: _484  and  _485
REMARK  197  A    between atoms: _487  and  _489
REMARK  198  A    between atoms: _489  and  _490
REMARK  199  A    between atoms: _489  and  _492
REMARK  200  A    between atoms: _495  and  _497
REMARK  201  A    between atoms: _497  and  _498
REMARK  202  A    between atoms: _497  and  _500
REMARK  203  A    between atoms: _500  and  _501
REMARK  204  A    between atoms: _504  and  _506
REMARK  205  A    between atoms: _506  and  _507
REMARK  206  A    between atoms: _506  and  _509
REMARK  207  A    between atoms: _509  and  _510
REMARK  208  A    between atoms: _515  and  _516
REMARK  209  A    between atoms: _518  and  _520
REMARK  210  A    between atoms: _520  and  _521
REMARK  211  A    between atoms: _520  and  _523
REMARK  212  A    between atoms: _523  and  _524
REMARK  213  A    between atoms: _529  and  _530
REMARK  214  A    between atoms: _532  and  _534
REMARK  215  A    between atoms: _534  and  _535
REMARK  216  A    between atoms: _538  and  _540
REMARK  217  A    between atoms: _540  and  _541
REMARK  218  A    between atoms: _540  and  _543
REMARK  219  A    between atoms: _543  and  _544
REMARK  220  A    between atoms: _550  and  _552
REMARK  221  A    between atoms: _552  and  _553
REMARK  222  A    between atoms: _552  and  _555
REMARK  223  A    between atoms: _555  and  _556
REMARK  224  A    between atoms: _558  and  _560
REMARK  225  A    between atoms: _560  and  _561
REMARK  226  A    between atoms: _560  and  _563
REMARK  227  A    between atoms: _563  and  _564
REMARK  228  A    between atoms: _567  and  _569
REMARK  229  A    between atoms: _569  and  _570
REMARK  230  A    between atoms: _569  and  _572
REMARK  231  A    between atoms: _572  and  _573
REMARK  232  A    between atoms: _576  and  _578
REMARK  233  A    between atoms: _578  and  _579
REMARK  234  A    between atoms: _578  and  _581
REMARK  235  A    between atoms: _581  and  _582
REMARK  236  A    between atoms: _592  and  _594
REMARK  237  A    between atoms: _594  and  _595
REMARK  238  A    between atoms: _594  and  _597
REMARK  239  A    between atoms: _597  and  _598
REMARK  240  A    between atoms: _598  and  _599
REMARK  241  A    between atoms: _601  and  _603
REMARK  242  A    between atoms: _603  and  _604
REMARK  243  A    between atoms: _603  and  _606
REMARK  244  A    between atoms: _606  and  _607
REMARK  245  A    between atoms: _610  and  _612
REMARK  246  A    between atoms: _612  and  _613
REMARK  247  A    between atoms: _612  and  _615
REMARK  248  A    between atoms: _615  and  _616
REMARK  249  A    between atoms: _619  and  _621
REMARK  250  A    between atoms: _621  and  _622
REMARK  251  A    between atoms: _625  and  _627
REMARK  252  A    between atoms: _627  and  _628
REMARK  253  A    between atoms: _627  and  _630
REMARK  254  A    between atoms: _630  and  _631
REMARK  255  A    between atoms: _634  and  _636
REMARK  256  A    between atoms: _636  and  _637
REMARK  257  A    between atoms: _639  and  _641
REMARK  258  A    between atoms: _641  and  _642
REMARK  259  A    between atoms: _641  and  _644
REMARK  260  A    between atoms: _644  and  _645
REMARK  261  A    between atoms: _650  and  _652
REMARK  262  A    between atoms: _652  and  _653
REMARK  263  A    between atoms: _652  and  _655
REMARK  264  A    between atoms: _655  and  _656
REMARK                            x       y       z     vdW  Elec       q    Type
REMARK                         _______ _______ _______ _____ _____    ______ ____
ROOT
ATOM      1  CA  THR A   1      28.100 113.629  22.799  0.00  0.00    +0.160 C 
ENDROOT
BRANCH   1   2
ATOM      2  N   THR A   1      29.088 113.781  21.734  0.00  0.00    -0.237 NA
ATOM      3  H   THR A   1      29.656 112.955  21.456  0.00  0.00    +0.142 HD
ENDBRANCH   1   2
BRANCH   1   4
ATOM      4  C   THR A   1      28.460 114.401  24.069  0.00  0.00    +0.227 C 
ATOM      5  O   THR A   1      27.636 115.145  24.605  0.00  0.00    -0.287 OA
ENDBRANCH   1   4
BRANCH   1   6
ATOM      6  CB  THR A   1      27.887 112.139  23.149  0.00  0.00    +0.134 C 
ATOM      7  CG2 THR A   1      26.881 111.989  24.279  0.00  0.00    +0.034 C 
BRANCH   6   8
ATOM      8  OG1 THR A   1      27.407 111.439  21.994  0.00  0.00    -0.383 OA
ATOM      9  HG1 THR A   1      28.071 111.515  21.264  0.00  0.00    +0.210 HD
ENDBRANCH   6   8
ENDBRANCH   1   6
TORSDOF 4
REMARK  Name = ../refined-set-2016/4c1t/4c1t_pocket.pdb
REMARK  264 active torsions:
REMARK  status: ('A' for Active; 'I' for Inactive)
REMARK    1  A    between atoms: _1  and  _3
REMARK    2  A    between atoms: _3  and  _4
REMARK    3  A    between atoms: _3  and  _6
REMARK    4  A    between atoms: _6  and  _7
REMARK    5  A    between atoms: _12  and  _14
REMARK    6  A    between atoms: _14  and  _15
REMARK    7  A    between atoms: _14  and  _17
REMARK    8  A    between atoms: _17  and  _18
REMARK    9  A    between atoms: _23  and  _25
REMARK   10  A    between atoms: _25  and  _26
REMARK   11  A    between atoms: _29  and  _31
REMARK   12  A    between atoms: _31  and  _32
REMARK   13  A    between atoms: _31  and  _34
REMARK   14  A    between atoms: _34  and  _35
REMARK   15  A    between atoms: _37  and  _39
REMARK   16  A    between atoms: _39  and  _40
REMARK   17  A    between atoms: _43  and  _45
REMARK   18  A    between atoms: _45  and  _46
REMARK   19  A    between atoms: _48  and  _50
REMARK   20  A    between atoms: _50  and  _51
REMARK   21  A    between atoms: _50  and  _53
REMARK   22  A    between atoms: _53  and  _54
REMARK   23  A    between atoms: _54  and  _55
REMARK   24  A    between atoms: _58  and  _60
REMARK   25  A    between atoms: _60  and  _61
REMARK   26  A    between atoms: _63  and  _65
REMARK   27  A    between atoms: _65  and  _66
REMARK   28  A    between atoms: _65  and  _68
REMARK   29  A    between atoms: _68  and  _69
REMARK   30  A    between atoms: _69  and  _70
REMARK   31  A    between atoms: _70  and  _71
REMARK   32  A    between atoms: _80  and  _82
REMARK   33  A    between atoms: _82  and  _83
REMARK   34  A    between atoms: _82  and  _85
REMARK   35  A    between atoms: _85  and  _86
REMARK   36  A    between atoms: _86  and  _87
REMARK   37  A    between atoms: _92  and  _94
REMARK   38  A    between atoms: _94  and  _95
REMARK   39  A    between atoms: _94  and  _97
REMARK   40  A    between atoms: _97  and  _98
REMARK   41  A    between atoms: _103  and  _104
REMARK   42  A    between atoms: _106  and  _108
REMARK   43  A    between atoms: _108  and  _109
REMARK   44  A    between atoms: _108  and  _111
REMARK   45  A    between atoms: _111  and  _112
REMARK   46  A    between atoms: _122  and  _124
REMARK   47  A    between atoms: _124  and  _125
REMARK   48  A    between atoms: _124  and  _127
REMARK   49  A    between atoms: _127  and  _128
REMARK   50  A    between atoms: _131  and  _133
REMARK   51  A    between atoms: _133  and  _134
REMARK   52  A    between atoms: _133  and  _136
REMARK   53  A    between atoms: _136  and  _137
REMARK   54  A    between atoms: _137  and  _138
REMARK   55  A    between atoms: _143  and  _145
REMARK   56  A    between atoms: _145  and  _146
REMARK   57  A    between atoms: _145  and  _148
REMARK   58  A    between atoms: _148  and  _149
REMARK   59  A    between atoms: _154  and  _156
REMARK   60  A    between atoms: _156  and  _157
REMARK   61  A    between atoms: _156  and  _159
REMARK   62  A    between atoms: _159  and  _160
REMARK   63  A    between atoms: _160  and  _161
REMARK   64  A    between atoms: _164  and  _166
REMARK   65  A    between atoms: _166  and  _167
REMARK   66  A    between atoms: _166  and  _169
REMARK   67  A    between atoms: _169  and  _170
REMARK   68  A    between atoms: _173  and  _175
REMARK   69  A    between atoms: _175  and  _176
REMARK   70  A    between atoms: _175  and  _178
REMARK   71  A    between atoms: _178  and  _179
REMARK   72  A    between atoms: _185  and  _187
REMARK   73  A    between atoms: _187  and  _188
REMARK   74  A    between atoms: _191  and  _193
REMARK   75  A    between atoms: _193  and  _194
REMARK   76  A    between atoms: _196  and  _198
REMARK   77  A    between atoms: _198  and  _199
REMARK   78  A    between atoms: _198  and  _201
REMARK   79  A    between atoms: _201  and  _202
REMARK   80  A    between atoms: _202  and  _203
REMARK   81  A    between atoms: _203  and  _204
REMARK   82  A    between atoms: _204  and  _205
REMARK   83  A    between atoms: _209  and  _211
REMARK   84  A    between atoms: _211  and  _212
REMARK   85  A    between atoms: _211  and  _214
REMARK   86  A    between atoms: _214  and  _215
REMARK   87  A    between atoms: _218  and  _220
REMARK   88  A    between atoms: _220  and  _221
REMARK   89  A    between atoms: _220  and  _223
REMARK   90  A    between atoms: _223  and  _224
REMARK   91  A    between atoms: _224  and  _225
REMARK   92  A    between atoms: _230  and  _232
REMARK   93  A    between atoms: _232  and  _233
REMARK   94  A    between atoms: _232  and  _235
REMARK   95  A    between atoms: _235  and  _236
REMARK   96  A    between atoms: _236  and  _237
REMARK   97  A    between atoms: _239  and  _241
REMARK   98  A    between atoms: _241  and  _242
REMARK   99  A    between atoms: _241  and  _244
REMARK  100  A    between atoms: _244  and  _245
REMARK  101  A    between atoms: _247  and  _249
REMARK  102  A    between atoms: _249  and  _250
REMARK  103  A    between atoms: _249  and  _252
REMARK  104  A    between atoms: _252  and  _253
REMARK  105  A    between atoms: _256  and  _258
REMARK  106  A    between atoms: _258  and  _259
REMARK  107  A    between atoms: _261  and  _263
REMARK  108  A    between atoms: _263  and  _264
REMARK  109  A    between atoms: _263  and  _266
REMARK  110  A    between atoms: _266  and  _267
REMARK  111  A    between atoms: _267  and  _268
REMARK  112  A    between atoms: _268  and  _269
REMARK  113  A    between atoms: _269  and  _270
REMARK  114  A    between atoms: _274  and  _276
REMARK  115  A    between atoms: _276  and  _277
REMARK  116  A    between atoms: _276  and  _279
REMARK  117  A    between atoms: _279  and  _280
REMARK  118  A    between atoms: _282  and  _284
REMARK  119  A    between atoms: _284  and  _285
REMARK  120  A    between atoms: _284  and  _287
REMARK  121  A    between atoms: _287  and  _288
REMARK  122  A    between atoms: _288  and  _289
REMARK  123  A    between atoms: _292  and  _294
REMARK  124  A    between atoms: _294  and  _295
REMARK  125  A    between atoms: _294  and  _297
REMARK  126  A    between atoms: _297  and  _298
REMARK  127  A    between atoms: _301  and  _303
REMARK  128  A    between atoms: _303  and  _304
REMARK  129  A    between atoms: _307  and  _309
REMARK  130  A    between atoms: _309  and  _310
REMARK  131  A    between atoms: _309  and  _312
REMARK  132  A    between atoms: _312  and  _313
REMARK  133  A    between atoms: _324  and  _325
REMARK  134  A    between atoms: _330  and  _332
REMARK  135  A    between atoms: _332  and  _333
REMARK  136  A    between atoms: _336  and  _338
REMARK  137  A    between atoms: _338  and  _339
REMARK  138  A    between atoms: _338  and  _341
REMARK  139  A    between atoms: _341  and  _342
REMARK  140  A    between atoms: _347  and  _349
REMARK  141  A    between atoms: _349  and  _350
REMARK  142  A    between atoms: _349  and  _352
REMARK  143  A    between atoms: _352  and  _353
REMARK  144  A    between atoms: _358  and  _359
REMARK  145  A    between atoms: _361  and  _363
REMARK  146  A    between atoms: _363  and  _364
REMARK  147  A    between atoms: _367  and  _369
REMARK  148  A    between atoms: _369  and  _370
REMARK  149  A    between atoms: _369  and  _372
REMARK  150  A    between atoms: _372  and  _373
REMARK  151  A    between atoms: _373  and  _374
REMARK  152  A    between atoms: _379  and  _381
REMARK  153  A    between atoms: _381  and  _382
REMARK  154  A    between atoms: _381  and  _384
REMARK  155  A    between atoms: _384  and  _385
REMARK  156  A    between atoms: _385  and  _386
REMARK  157  A    between atoms: _391  and  _393
REMARK  158  A    between atoms: _393  and  _394
REMARK  159  A    between atoms: _393  and  _396
REMARK  160  A    between atoms: _396  and  _397
REMARK  161  A    between atoms: _397  and  _398
REMARK  162  A    between atoms: _400  and  _402
REMARK  163  A    between atoms: _402  and  _403
REMARK  164  A    between atoms: _405  and  _407
REMARK  165  A    between atoms: _407  and  _408
REMARK  166  A    between atoms: _411  and  _413
REMARK  167  A    between atoms: _413  and  _414
REMARK  168  A    between atoms: _413  and  _416
REMARK  169  A    between atoms: _416  and  _417
REMARK  170  A    between atoms: _427  and  _429
REMARK  171  A    between atoms: _429  and  _430
REMARK  172  A    between atoms: _429  and  _432
REMARK  173  A    between atoms: _432  and  _433
REMARK  174  A    between atoms: _433  and  _434
REMARK  175  A    between atoms: _437  and  _439
REMARK  176  A    between atoms: _439  and  _440
REMARK  177  A    between atoms: _442  and  _444
REMARK  178  A    between atoms: _444  and  _445
REMARK  179  A    between atoms: _444  and  _447
REMARK  180  A    between atoms: _450  and  _452
REMARK  181  A    between atoms: _452  and  _453
REMARK  182  A    between atoms: _452  and  _455
REMARK  183  A    between atoms: _455  and  _456
REMARK  184  A    between atoms: _459  and  _461
REMARK  185  A    between atoms: _461  and  _462
REMARK  186  A    between atoms: _461  and  _464
REMARK  187  A    between atoms: _464  and  _465
REMARK  188  A    between atoms: _468  and  _470
REMARK  189  A    between atoms: _470  and  _471
REMARK  190  A    between atoms: _470  and  _473
REMARK  191  A    between atoms: _473  and  _474
REMARK  192  A    between atoms: _474  and  _475
REMARK  193  A    between atoms: _477  and  _479
REMARK  194  A    between atoms: _479  and  _480
REMARK  195  A    between atoms: _482  and  _484
REMARK  196  A    between atoms: _484  and  _485
REMARK  197  A    between atoms: _487  and  _489
REMARK  198  A    between atoms: _489  and  _490
REMARK  199  A    between atoms: _489  and  _492
REMARK  200  A    between atoms: _495  and  _497
REMARK  201  A    between atoms: _497  and  _498
REMARK  202  A    between atoms: _497  and  _500
REMARK  203  A    between atoms: _500  and  _501
REMARK  204  A    between atoms: _504  and  _506
REMARK  205  A    between atoms: _506  and  _507
REMARK  206  A    between atoms: _506  and  _509
REMARK  207  A    between atoms: _509  and  _510
REMARK  208  A    between atoms: _515  and  _516
REMARK  209  A    between atoms: _518  and  _520
REMARK  210  A    between atoms: _520  and  _521
REMARK  211  A    between atoms: _520  and  _523
REMARK  212  A    between atoms: _523  and  _524
REMARK  213  A    between atoms: _529  and  _530
REMARK  214  A    between atoms: _532  and  _534
REMARK  215  A    between atoms: _534  and  _535
REMARK  216  A    between atoms: _538  and  _540
REMARK  217  A    between atoms: _540  and  _541
REMARK  218  A    between atoms: _540  and  _543
REMARK  219  A    between atoms: _543  and  _544
REMARK  220  A    between atoms: _550  and  _552
REMARK  221  A    between atoms: _552  and  _553
REMARK  222  A    between atoms: _552  and  _555
REMARK  223  A    between atoms: _555  and  _556
REMARK  224  A    between atoms: _558  and  _560
REMARK  225  A    between atoms: _560  and  _561
REMARK  226  A    between atoms: _560  and  _563
REMARK  227  A    between atoms: _563  and  _564
REMARK  228  A    between atoms: _567  and  _569
REMARK  229  A    between atoms: _569  and  _570
REMARK  230  A    between atoms: _569  and  _572
REMARK  231  A    between atoms: _572  and  _573
REMARK  232  A    between atoms: _576  and  _578
REMARK  233  A    between atoms: _578  and  _579
REMARK  234  A    between atoms: _578  and  _581
REMARK  235  A    between atoms: _581  and  _582
REMARK  236  A    between atoms: _592  and  _594
REMARK  237  A    between atoms: _594  and  _595
REMARK  238  A    between atoms: _594  and  _597
REMARK  239  A    between atoms: _597  and  _598
REMARK  240  A    between atoms: _598  and  _599
REMARK  241  A    between atoms: _601  and  _603
REMARK  242  A    between atoms: _603  and  _604
REMARK  243  A    between atoms: _603  and  _606
REMARK  244  A    between atoms: _606  and  _607
REMARK  245  A    between atoms: _610  and  _612
REMARK  246  A    between atoms: _612  and  _613
REMARK  247  A    between atoms: _612  and  _615
REMARK  248  A    between atoms: _615  and  _616
REMARK  249  A    between atoms: _619  and  _621
REMARK  250  A    between atoms: _621  and  _622
REMARK  251  A    between atoms: _625  and  _627
REMARK  252  A    between atoms: _627  and  _628
REMARK  253  A    between atoms: _627  and  _630
REMARK  254  A    between atoms: _630  and  _631
REMARK  255  A    between atoms: _634  and  _636
REMARK  256  A    between atoms: _636  and  _637
REMARK  257  A    between atoms: _639  and  _641
REMARK  258  A    between atoms: _641  and  _642
REMARK  259  A    between atoms: _641  and  _644
REMARK  260  A    between atoms: _644  and  _645
REMARK  261  A    between atoms: _650  and  _652
REMARK  262  A    between atoms: _652  and  _653
REMARK  263  A    between atoms: _652  and  _655
REMARK  264  A    between atoms: _655  and  _656
REMARK                            x       y       z     vdW  Elec       q    Type
REMARK                         _______ _______ _______ _____ _____    ______ ____
ROOT
ATOM      1  CA  ASN A   2      25.320 117.910  25.796  0.00  0.00    +0.146 C 
ENDROOT
BRANCH   1   3
ATOM      2  C   GLY A   1      26.419 118.863  23.845  0.00  0.00    +0.240 C 
ATOM      3  N   ASN A   2      26.272 117.848  24.692  0.00  0.00    -0.298 N 
ATOM      4  H   ASN A   2      26.848 116.992  24.565  0.00  0.00    +0.150 HD
ATOM      5  O   GLY A   1      25.772 119.907  23.932  0.00  0.00    -0.274 OA
BRANCH   2   6
ATOM      6  CA  GLY A   1      27.446 118.683  22.744  0.00  0.00    +0.169 C 
BRANCH   6   7
ATOM      7  N   GLY A   1      28.747 118.260  23.228  0.00  0.00    -0.236 NA
ATOM      8  H   GLY A   1      29.152 117.372  22.869  0.00  0.00    +0.142 HD
ENDBRANCH   6   7
ENDBRANCH   2   6
ENDBRANCH   1   3
BRANCH   1   9
ATOM      9  C   ASN A   2      25.701 118.954  26.838  0.00  0.00    +0.227 C 
ATOM     10  O   ASN A   2      24.834 119.601  27.425  0.00  0.00    -0.286 OA
ENDBRANCH   1   9
BRANCH   1  11
ATOM     11  CB  ASN A   2      25.160 116.539  26.456  0.00  0.00    +0.112 C 
BRANCH  11  12
ATOM     12  CG  ASN A   2      24.560 115.512  25.521  0.00  0.00    +0.222 C 
ATOM     13  ND2 ASN A   2      24.635 114.244  25.906  0.00  0.00    -0.329 N 
ATOM     14 HD21 ASN A   2      25.090 114.001  26.809  0.00  0.00    +0.145 HD
ATOM     15 HD22 ASN A   2      24.238 113.494  25.305  0.00  0.00    +0.145 HD
ATOM     16  OD1 ASN A   2      24.032 115.854  24.463  0.00  0.00    -0.275 OA
ENDBRANCH  11  12
ENDBRANCH   1  11
TORSDOF 6
REMARK  Name = ../refined-set-2016/4c1t/4c1t_pocket.pdb
REMARK  264 active torsions:
REMARK  status: ('A' for Active; 'I' for Inactive)
REMARK    1  A    between atoms: _1  and  _3
REMARK    2  A    between atoms: _3  and  _4
REMARK    3  A    between atoms: _3  and  _6
REMARK    4  A    between atoms: _6  and  _7
REMARK    5  A    between atoms: _12  and  _14
REMARK    6  A    between atoms: _14  and  _15
REMARK    7  A    between atoms: _14  and  _17
REMARK    8  A    between atoms: _17  and  _18
REMARK    9  A    between atoms: _23  and  _25
REMARK   10  A    between atoms: _25  and  _26
REMARK   11  A    between atoms: _29  and  _31
REMARK   12  A    between atoms: _31  and  _32
REMARK   13  A    between atoms: _31  and  _34
REMARK   14  A    between atoms: _34  and  _35
REMARK   15  A    between atoms: _37  and  _39
REMARK   16  A    between atoms: _39  and  _40
REMARK   17  A    between atoms: _43  and  _45
REMARK   18  A    between atoms: _45  and  _46
REMARK   19  A    between atoms: _48  and  _50
REMARK   20  A    between atoms: _50  and  _51
REMARK   21  A    between atoms: _50  and  _53
REMARK   22  A    between atoms: _53  and  _54
REMARK   23  A    between atoms: _54  and  _55
REMARK   24  A    between atoms: _58  and  _60
REMARK   25  A    between atoms: _60  and  _61
REMARK   26  A    between atoms: _63  and  _65
REMARK   27  A    between atoms: _65  and  _66
REMARK   28  A    between atoms: _65  and  _68
REMARK   29  A    between atoms: _68  and  _69
REMARK   30  A    between atoms: _69  and  _70
REMARK   31  A    between atoms: _70  and  _71
REMARK   32  A    between atoms: _80  and  _82
REMARK   33  A    between atoms: _82  and  _83
REMARK   34  A    between atoms: _82  and  _85
REMARK   35  A    between atoms: _85  and  _86
REMARK   36  A    between atoms: _86  and  _87
REMARK   37  A    between atoms: _92  and  _94
REMARK   38  A    between atoms: _94  and  _95
REMARK   39  A    between atoms: _94  and  _97
REMARK   40  A    between atoms: _97  and  _98
REMARK   41  A    between atoms: _103  and  _104
REMARK   42  A    between atoms: _106  and  _108
REMARK   43  A    between atoms: _108  and  _109
REMARK   44  A    between atoms: _108  and  _111
REMARK   45  A    between atoms: _111  and  _112
REMARK   46  A    between atoms: _122  and  _124
REMARK   47  A    between atoms: _124  and  _125
REMARK   48  A    between atoms: _124  and  _127
REMARK   49  A    between atoms: _127  and  _128
REMARK   50  A    between atoms: _131  and  _133
REMARK   51  A    between atoms: _133  and  _134
REMARK   52  A    between atoms: _133  and  _136
REMARK   53  A    between atoms: _136  and  _137
REMARK   54  A    between atoms: _137  and  _138
REMARK   55  A    between atoms: _143  and  _145
REMARK   56  A    between atoms: _145  and  _146
REMARK   57  A    between atoms: _145  and  _148
REMARK   58  A    between atoms: _148  and  _149
REMARK   59  A    between atoms: _154  and  _156
REMARK   60  A    between atoms: _156  and  _157
REMARK   61  A    between atoms: _156  and  _159
REMARK   62  A    between atoms: _159  and  _160
REMARK   63  A    between atoms: _160  and  _161
REMARK   64  A    between atoms: _164  and  _166
REMARK   65  A    between atoms: _166  and  _167
REMARK   66  A    between atoms: _166  and  _169
REMARK   67  A    between atoms: _169  and  _170
REMARK   68  A    between atoms: _173  and  _175
REMARK   69  A    between atoms: _175  and  _176
REMARK   70  A    between atoms: _175  and  _178
REMARK   71  A    between atoms: _178  and  _179
REMARK   72  A    between atoms: _185  and  _187
REMARK   73  A    between atoms: _187  and  _188
REMARK   74  A    between atoms: _191  and  _193
REMARK   75  A    between atoms: _193  and  _194
REMARK   76  A    between atoms: _196  and  _198
REMARK   77  A    between atoms: _198  and  _199
REMARK   78  A    between atoms: _198  and  _201
REMARK   79  A    between atoms: _201  and  _202
REMARK   80  A    between atoms: _202  and  _203
REMARK   81  A    between atoms: _203  and  _204
REMARK   82  A    between atoms: _204  and  _205
REMARK   83  A    between atoms: _209  and  _211
REMARK   84  A    between atoms: _211  and  _212
REMARK   85  A    between atoms: _211  and  _214
REMARK   86  A    between atoms: _214  and  _215
REMARK   87  A    between atoms: _218  and  _220
REMARK   88  A    between atoms: _220  and  _221
REMARK   89  A    between atoms: _220  and  _223
REMARK   90  A    between atoms: _223  and  _224
REMARK   91  A    between atoms: _224  and  _225
REMARK   92  A    between atoms: _230  and  _232
REMARK   93  A    between atoms: _232  and  _233
REMARK   94  A    between atoms: _232  and  _235
REMARK   95  A    between atoms: _235  and  _236
REMARK   96  A    between atoms: _236  and  _237
REMARK   97  A    between atoms: _239  and  _241
REMARK   98  A    between atoms: _241  and  _242
REMARK   99  A    between atoms: _241  and  _244
REMARK  100  A    between atoms: _244  and  _245
REMARK  101  A    between atoms: _247  and  _249
REMARK  102  A    between atoms: _249  and  _250
REMARK  103  A    between atoms: _249  and  _252
REMARK  104  A    between atoms: _252  and  _253
REMARK  105  A    between atoms: _256  and  _258
REMARK  106  A    between atoms: _258  and  _259
REMARK  107  A    between atoms: _261  and  _263
REMARK  108  A    between atoms: _263  and  _264
REMARK  109  A    between atoms: _263  and  _266
REMARK  110  A    between atoms: _266  and  _267
REMARK  111  A    between atoms: _267  and  _268
REMARK  112  A    between atoms: _268  and  _269
REMARK  113  A    between atoms: _269  and  _270
REMARK  114  A    between atoms: _274  and  _276
REMARK  115  A    between atoms: _276  and  _277
REMARK  116  A    between atoms: _276  and  _279
REMARK  117  A    between atoms: _279  and  _280
REMARK  118  A    between atoms: _282  and  _284
REMARK  119  A    between atoms: _284  and  _285
REMARK  120  A    between atoms: _284  and  _287
REMARK  121  A    between atoms: _287  and  _288
REMARK  122  A    between atoms: _288  and  _289
REMARK  123  A    between atoms: _292  and  _294
REMARK  124  A    between atoms: _294  and  _295
REMARK  125  A    between atoms: _294  and  _297
REMARK  126  A    between atoms: _297  and  _298
REMARK  127  A    between atoms: _301  and  _303
REMARK  128  A    between atoms: _303  and  _304
REMARK  129  A    between atoms: _307  and  _309
REMARK  130  A    between atoms: _309  and  _310
REMARK  131  A    between atoms: _309  and  _312
REMARK  132  A    between atoms: _312  and  _313
REMARK  133  A    between atoms: _324  and  _325
REMARK  134  A    between atoms: _330  and  _332
REMARK  135  A    between atoms: _332  and  _333
REMARK  136  A    between atoms: _336  and  _338
REMARK  137  A    between atoms: _338  and  _339
REMARK  138  A    between atoms: _338  and  _341
REMARK  139  A    between atoms: _341  and  _342
REMARK  140  A    between atoms: _347  and  _349
REMARK  141  A    between atoms: _349  and  _350
REMARK  142  A    between atoms: _349  and  _352
REMARK  143  A    between atoms: _352  and  _353
REMARK  144  A    between atoms: _358  and  _359
REMARK  145  A    between atoms: _361  and  _363
REMARK  146  A    between atoms: _363  and  _364
REMARK  147  A    between atoms: _367  and  _369
REMARK  148  A    between atoms: _369  and  _370
REMARK  149  A    between atoms: _369  and  _372
REMARK  150  A    between atoms: _372  and  _373
REMARK  151  A    between atoms: _373  and  _374
REMARK  152  A    between atoms: _379  and  _381
REMARK  153  A    between atoms: _381  and  _382
REMARK  154  A    between atoms: _381  and  _384
REMARK  155  A    between atoms: _384  and  _385
REMARK  156  A    between atoms: _385  and  _386
REMARK  157  A    between atoms: _391  and  _393
REMARK  158  A    between atoms: _393  and  _394
REMARK  159  A    between atoms: _393  and  _396
REMARK  160  A    between atoms: _396  and  _397
REMARK  161  A    between atoms: _397  and  _398
REMARK  162  A    between atoms: _400  and  _402
REMARK  163  A    between atoms: _402  and  _403
REMARK  164  A    between atoms: _405  and  _407
REMARK  165  A    between atoms: _407  and  _408
REMARK  166  A    between atoms: _411  and  _413
REMARK  167  A    between atoms: _413  and  _414
REMARK  168  A    between atoms: _413  and  _416
REMARK  169  A    between atoms: _416  and  _417
REMARK  170  A    between atoms: _427  and  _429
REMARK  171  A    between atoms: _429  and  _430
REMARK  172  A    between atoms: _429  and  _432
REMARK  173  A    between atoms: _432  and  _433
REMARK  174  A    between atoms: _433  and  _434
REMARK  175  A    between atoms: _437  and  _439
REMARK  176  A    between atoms: _439  and  _440
REMARK  177  A    between atoms: _442  and  _444
REMARK  178  A    between atoms: _444  and  _445
REMARK  179  A    between atoms: _444  and  _447
REMARK  180  A    between atoms: _450  and  _452
REMARK  181  A    between atoms: _452  and  _453
REMARK  182  A    between atoms: _452  and  _455
REMARK  183  A    between atoms: _455  and  _456
REMARK  184  A    between atoms: _459  and  _461
REMARK  185  A    between atoms: _461  and  _462
REMARK  186  A    between atoms: _461  and  _464
REMARK  187  A    between atoms: _464  and  _465
REMARK  188  A    between atoms: _468  and  _470
REMARK  189  A    between atoms: _470  and  _471
REMARK  190  A    between atoms: _470  and  _473
REMARK  191  A    between atoms: _473  and  _474
REMARK  192  A    between atoms: _474  and  _475
REMARK  193  A    between atoms: _477  and  _479
REMARK  194  A    between atoms: _479  and  _480
REMARK  195  A    between atoms: _482  and  _484
REMARK  196  A    between atoms: _484  and  _485
REMARK  197  A    between atoms: _487  and  _489
REMARK  198  A    between atoms: _489  and  _490
REMARK  199  A    between atoms: _489  and  _492
REMARK  200  A    between atoms: _495  and  _497
REMARK  201  A    between atoms: _497  and  _498
REMARK  202  A    between atoms: _497  and  _500
REMARK  203  A    between atoms: _500  and  _501
REMARK  204  A    between atoms: _504  and  _506
REMARK  205  A    between atoms: _506  and  _507
REMARK  206  A    between atoms: _506  and  _509
REMARK  207  A    between atoms: _509  and  _510
REMARK  208  A    between atoms: _515  and  _516
REMARK  209  A    between atoms: _518  and  _520
REMARK  210  A    between atoms: _520  and  _521
REMARK  211  A    between atoms: _520  and  _523
REMARK  212  A    between atoms: _523  and  _524
REMARK  213  A    between atoms: _529  and  _530
REMARK  214  A    between atoms: _532  and  _534
REMARK  215  A    between atoms: _534  and  _535
REMARK  216  A    between atoms: _538  and  _540
REMARK  217  A    between atoms: _540  and  _541
REMARK  218  A    between atoms: _540  and  _543
REMARK  219  A    between atoms: _543  and  _544
REMARK  220  A    between atoms: _550  and  _552
REMARK  221  A    between atoms: _552  and  _553
REMARK  222  A    between atoms: _552  and  _555
REMARK  223  A    between atoms: _555  and  _556
REMARK  224  A    between atoms: _558  and  _560
REMARK  225  A    between atoms: _560  and  _561
REMARK  226  A    between atoms: _560  and  _563
REMARK  227  A    between atoms: _563  and  _564
REMARK  228  A    between atoms: _567  and  _569
REMARK  229  A    between atoms: _569  and  _570
REMARK  230  A    between atoms: _569  and  _572
REMARK  231  A    between atoms: _572  and  _573
REMARK  232  A    between atoms: _576  and  _578
REMARK  233  A    between atoms: _578  and  _579
REMARK  234  A    between atoms: _578  and  _581
REMARK  235  A    between atoms: _581  and  _582
REMARK  236  A    between atoms: _592  and  _594
REMARK  237  A    between atoms: _594  and  _595
REMARK  238  A    between atoms: _594  and  _597
REMARK  239  A    between atoms: _597  and  _598
REMARK  240  A    between atoms: _598  and  _599
REMARK  241  A    between atoms: _601  and  _603
REMARK  242  A    between atoms: _603  and  _604
REMARK  243  A    between atoms: _603  and  _606
REMARK  244  A    between atoms: _606  and  _607
REMARK  245  A    between atoms: _610  and  _612
REMARK  246  A    between atoms: _612  and  _613
REMARK  247  A    between atoms: _612  and  _615
REMARK  248  A    between atoms: _615  and  _616
REMARK  249  A    between atoms: _619  and  _621
REMARK  250  A    between atoms: _621  and  _622
REMARK  251  A    between atoms: _625  and  _627
REMARK  252  A    between atoms: _627  and  _628
REMARK  253  A    between atoms: _627  and  _630
REMARK  254  A    between atoms: _630  and  _631
REMARK  255  A    between atoms: _634  and  _636
REMARK  256  A    between atoms: _636  and  _637
REMARK  257  A    between atoms: _639  and  _641
REMARK  258  A    between atoms: _641  and  _642
REMARK  259  A    between atoms: _641  and  _644
REMARK  260  A    between atoms: _644  and  _645
REMARK  261  A    between atoms: _650  and  _652
REMARK  262  A    between atoms: _652  and  _653
REMARK  263  A    between atoms: _652  and  _655
REMARK  264  A    between atoms: _655  and  _656
REMARK                            x       y       z     vdW  Elec       q    Type
REMARK                         _______ _______ _______ _____ _____    ______ ____
ROOT
ATOM      1  CB  ASN A   1      22.700 121.417  24.479  0.00  0.00    +0.110 C 
ENDROOT
BRANCH   1   2
ATOM      2  CG  ASN A   1      23.138 121.154  23.054  0.00  0.00    +0.221 C 
ATOM      3  ND2 ASN A   1      22.730 120.015  22.507  0.00  0.00    -0.329 N 
ATOM      4 HD21 ASN A   1      22.142 119.356  23.056  0.00  0.00    +0.145 HD
ATOM      5 HD22 ASN A   1      22.998 119.782  21.529  0.00  0.00    +0.145 HD
ATOM      6  OD1 ASN A   1      23.834 121.969  22.450  0.00  0.00    -0.275 OA
ENDBRANCH   1   2
BRANCH   1   7
ATOM      7  CA  ASN A   1      23.409 122.625  25.096  0.00  0.00    +0.142 C 
BRANCH   7   8
ATOM      8  N   ASN A   1      24.852 122.409  25.141  0.00  0.00    -0.239 NA
ATOM      9  H   ASN A   1      25.236 121.490  24.840  0.00  0.00    +0.142 HD
ENDBRANCH   7   8
BRANCH   7  10
ATOM     10  C   ASN A   1      22.818 122.947  26.464  0.00  0.00    +0.225 C 
ATOM     11  O   ASN A   1      21.948 123.812  26.587  0.00  0.00    -0.287 OA
ENDBRANCH   7  10
ENDBRANCH   1   7
TORSDOF 4
REMARK  Name = ../refined-set-2016/4c1t/4c1t_pocket.pdb
REMARK  264 active torsions:
REMARK  status: ('A' for Active; 'I' for Inactive)
REMARK    1  A    between atoms: _1  and  _3
REMARK    2  A    between atoms: _3  and  _4
REMARK    3  A    between atoms: _3  and  _6
REMARK    4  A    between atoms: _6  and  _7
REMARK    5  A    between atoms: _12  and  _14
REMARK    6  A    between atoms: _14  and  _15
REMARK    7  A    between atoms: _14  and  _17
REMARK    8  A    between atoms: _17  and  _18
REMARK    9  A    between atoms: _23  and  _25
REMARK   10  A    between atoms: _25  and  _26
REMARK   11  A    between atoms: _29  and  _31
REMARK   12  A    between atoms: _31  and  _32
REMARK   13  A    between atoms: _31  and  _34
REMARK   14  A    between atoms: _34  and  _35
REMARK   15  A    between atoms: _37  and  _39
REMARK   16  A    between atoms: _39  and  _40
REMARK   17  A    between atoms: _43  and  _45
REMARK   18  A    between atoms: _45  and  _46
REMARK   19  A    between atoms: _48  and  _50
REMARK   20  A    between atoms: _50  and  _51
REMARK   21  A    between atoms: _50  and  _53
REMARK   22  A    between atoms: _53  and  _54
REMARK   23  A    between atoms: _54  and  _55
REMARK   24  A    between atoms: _58  and  _60
REMARK   25  A    between atoms: _60  and  _61
REMARK   26  A    between atoms: _63  and  _65
REMARK   27  A    between atoms: _65  and  _66
REMARK   28  A    between atoms: _65  and  _68
REMARK   29  A    between atoms: _68  and  _69
REMARK   30  A    between atoms: _69  and  _70
REMARK   31  A    between atoms: _70  and  _71
REMARK   32  A    between atoms: _80  and  _82
REMARK   33  A    between atoms: _82  and  _83
REMARK   34  A    between atoms: _82  and  _85
REMARK   35  A    between atoms: _85  and  _86
REMARK   36  A    between atoms: _86  and  _87
REMARK   37  A    between atoms: _92  and  _94
REMARK   38  A    between atoms: _94  and  _95
REMARK   39  A    between atoms: _94  and  _97
REMARK   40  A    between atoms: _97  and  _98
REMARK   41  A    between atoms: _103  and  _104
REMARK   42  A    between atoms: _106  and  _108
REMARK   43  A    between atoms: _108  and  _109
REMARK   44  A    between atoms: _108  and  _111
REMARK   45  A    between atoms: _111  and  _112
REMARK   46  A    between atoms: _122  and  _124
REMARK   47  A    between atoms: _124  and  _125
REMARK   48  A    between atoms: _124  and  _127
REMARK   49  A    between atoms: _127  and  _128
REMARK   50  A    between atoms: _131  and  _133
REMARK   51  A    between atoms: _133  and  _134
REMARK   52  A    between atoms: _133  and  _136
REMARK   53  A    between atoms: _136  and  _137
REMARK   54  A    between atoms: _137  and  _138
REMARK   55  A    between atoms: _143  and  _145
REMARK   56  A    between atoms: _145  and  _146
REMARK   57  A    between atoms: _145  and  _148
REMARK   58  A    between atoms: _148  and  _149
REMARK   59  A    between atoms: _154  and  _156
REMARK   60  A    between atoms: _156  and  _157
REMARK   61  A    between atoms: _156  and  _159
REMARK   62  A    between atoms: _159  and  _160
REMARK   63  A    between atoms: _160  and  _161
REMARK   64  A    between atoms: _164  and  _166
REMARK   65  A    between atoms: _166  and  _167
REMARK   66  A    between atoms: _166  and  _169
REMARK   67  A    between atoms: _169  and  _170
REMARK   68  A    between atoms: _173  and  _175
REMARK   69  A    between atoms: _175  and  _176
REMARK   70  A    between atoms: _175  and  _178
REMARK   71  A    between atoms: _178  and  _179
REMARK   72  A    between atoms: _185  and  _187
REMARK   73  A    between atoms: _187  and  _188
REMARK   74  A    between atoms: _191  and  _193
REMARK   75  A    between atoms: _193  and  _194
REMARK   76  A    between atoms: _196  and  _198
REMARK   77  A    between atoms: _198  and  _199
REMARK   78  A    between atoms: _198  and  _201
REMARK   79  A    between atoms: _201  and  _202
REMARK   80  A    between atoms: _202  and  _203
REMARK   81  A    between atoms: _203  and  _204
REMARK   82  A    between atoms: _204  and  _205
REMARK   83  A    between atoms: _209  and  _211
REMARK   84  A    between atoms: _211  and  _212
REMARK   85  A    between atoms: _211  and  _214
REMARK   86  A    between atoms: _214  and  _215
REMARK   87  A    between atoms: _218  and  _220
REMARK   88  A    between atoms: _220  and  _221
REMARK   89  A    between atoms: _220  and  _223
REMARK   90  A    between atoms: _223  and  _224
REMARK   91  A    between atoms: _224  and  _225
REMARK   92  A    between atoms: _230  and  _232
REMARK   93  A    between atoms: _232  and  _233
REMARK   94  A    between atoms: _232  and  _235
REMARK   95  A    between atoms: _235  and  _236
REMARK   96  A    between atoms: _236  and  _237
REMARK   97  A    between atoms: _239  and  _241
REMARK   98  A    between atoms: _241  and  _242
REMARK   99  A    between atoms: _241  and  _244
REMARK  100  A    between atoms: _244  and  _245
REMARK  101  A    between atoms: _247  and  _249
REMARK  102  A    between atoms: _249  and  _250
REMARK  103  A    between atoms: _249  and  _252
REMARK  104  A    between atoms: _252  and  _253
REMARK  105  A    between atoms: _256  and  _258
REMARK  106  A    between atoms: _258  and  _259
REMARK  107  A    between atoms: _261  and  _263
REMARK  108  A    between atoms: _263  and  _264
REMARK  109  A    between atoms: _263  and  _266
REMARK  110  A    between atoms: _266  and  _267
REMARK  111  A    between atoms: _267  and  _268
REMARK  112  A    between atoms: _268  and  _269
REMARK  113  A    between atoms: _269  and  _270
REMARK  114  A    between atoms: _274  and  _276
REMARK  115  A    between atoms: _276  and  _277
REMARK  116  A    between atoms: _276  and  _279
REMARK  117  A    between atoms: _279  and  _280
REMARK  118  A    between atoms: _282  and  _284
REMARK  119  A    between atoms: _284  and  _285
REMARK  120  A    between atoms: _284  and  _287
REMARK  121  A    between atoms: _287  and  _288
REMARK  122  A    between atoms: _288  and  _289
REMARK  123  A    between atoms: _292  and  _294
REMARK  124  A    between atoms: _294  and  _295
REMARK  125  A    between atoms: _294  and  _297
REMARK  126  A    between atoms: _297  and  _298
REMARK  127  A    between atoms: _301  and  _303
REMARK  128  A    between atoms: _303  and  _304
REMARK  129  A    between atoms: _307  and  _309
REMARK  130  A    between atoms: _309  and  _310
REMARK  131  A    between atoms: _309  and  _312
REMARK  132  A    between atoms: _312  and  _313
REMARK  133  A    between atoms: _324  and  _325
REMARK  134  A    between atoms: _330  and  _332
REMARK  135  A    between atoms: _332  and  _333
REMARK  136  A    between atoms: _336  and  _338
REMARK  137  A    between atoms: _338  and  _339
REMARK  138  A    between atoms: _338  and  _341
REMARK  139  A    between atoms: _341  and  _342
REMARK  140  A    between atoms: _347  and  _349
REMARK  141  A    between atoms: _349  and  _350
REMARK  142  A    between atoms: _349  and  _352
REMARK  143  A    between atoms: _352  and  _353
REMARK  144  A    between atoms: _358  and  _359
REMARK  145  A    between atoms: _361  and  _363
REMARK  146  A    between atoms: _363  and  _364
REMARK  147  A    between atoms: _367  and  _369
REMARK  148  A    between atoms: _369  and  _370
REMARK  149  A    between atoms: _369  and  _372
REMARK  150  A    between atoms: _372  and  _373
REMARK  151  A    between atoms: _373  and  _374
REMARK  152  A    between atoms: _379  and  _381
REMARK  153  A    between atoms: _381  and  _382
REMARK  154  A    between atoms: _381  and  _384
REMARK  155  A    between atoms: _384  and  _385
REMARK  156  A    between atoms: _385  and  _386
REMARK  157  A    between atoms: _391  and  _393
REMARK  158  A    between atoms: _393  and  _394
REMARK  159  A    between atoms: _393  and  _396
REMARK  160  A    between atoms: _396  and  _397
REMARK  161  A    between atoms: _397  and  _398
REMARK  162  A    between atoms: _400  and  _402
REMARK  163  A    between atoms: _402  and  _403
REMARK  164  A    between atoms: _405  and  _407
REMARK  165  A    between atoms: _407  and  _408
REMARK  166  A    between atoms: _411  and  _413
REMARK  167  A    between atoms: _413  and  _414
REMARK  168  A    between atoms: _413  and  _416
REMARK  169  A    between atoms: _416  and  _417
REMARK  170  A    between atoms: _427  and  _429
REMARK  171  A    between atoms: _429  and  _430
REMARK  172  A    between atoms: _429  and  _432
REMARK  173  A    between atoms: _432  and  _433
REMARK  174  A    between atoms: _433  and  _434
REMARK  175  A    between atoms: _437  and  _439
REMARK  176  A    between atoms: _439  and  _440
REMARK  177  A    between atoms: _442  and  _444
REMARK  178  A    between atoms: _444  and  _445
REMARK  179  A    between atoms: _444  and  _447
REMARK  180  A    between atoms: _450  and  _452
REMARK  181  A    between atoms: _452  and  _453
REMARK  182  A    between atoms: _452  and  _455
REMARK  183  A    between atoms: _455  and  _456
REMARK  184  A    between atoms: _459  and  _461
REMARK  185  A    between atoms: _461  and  _462
REMARK  186  A    between atoms: _461  and  _464
REMARK  187  A    between atoms: _464  and  _465
REMARK  188  A    between atoms: _468  and  _470
REMARK  189  A    between atoms: _470  and  _471
REMARK  190  A    between atoms: _470  and  _473
REMARK  191  A    between atoms: _473  and  _474
REMARK  192  A    between atoms: _474  and  _475
REMARK  193  A    between atoms: _477  and  _479
REMARK  194  A    between atoms: _479  and  _480
REMARK  195  A    between atoms: _482  and  _484
REMARK  196  A    between atoms: _484  and  _485
REMARK  197  A    between atoms: _487  and  _489
REMARK  198  A    between atoms: _489  and  _490
REMARK  199  A    between atoms: _489  and  _492
REMARK  200  A    between atoms: _495  and  _497
REMARK  201  A    between atoms: _497  and  _498
REMARK  202  A    between atoms: _497  and  _500
REMARK  203  A    between atoms: _500  and  _501
REMARK  204  A    between atoms: _504  and  _506
REMARK  205  A    between atoms: _506  and  _507
REMARK  206  A    between atoms: _506  and  _509
REMARK  207  A    between atoms: _509  and  _510
REMARK  208  A    between atoms: _515  and  _516
REMARK  209  A    between atoms: _518  and  _520
REMARK  210  A    between atoms: _520  and  _521
REMARK  211  A    between atoms: _520  and  _523
REMARK  212  A    between atoms: _523  and  _524
REMARK  213  A    between atoms: _529  and  _530
REMARK  214  A    between atoms: _532  and  _534
REMARK  215  A    between atoms: _534  and  _535
REMARK  216  A    between atoms: _538  and  _540
REMARK  217  A    between atoms: _540  and  _541
REMARK  218  A    between atoms: _540  and  _543
REMARK  219  A    between atoms: _543  and  _544
REMARK  220  A    between atoms: _550  and  _552
REMARK  221  A    between atoms: _552  and  _553
REMARK  222  A    between atoms: _552  and  _555
REMARK  223  A    between atoms: _555  and  _556
REMARK  224  A    between atoms: _558  and  _560
REMARK  225  A    between atoms: _560  and  _561
REMARK  226  A    between atoms: _560  and  _563
REMARK  227  A    between atoms: _563  and  _564
REMARK  228  A    between atoms: _567  and  _569
REMARK  229  A    between atoms: _569  and  _570
REMARK  230  A    between atoms: _569  and  _572
REMARK  231  A    between atoms: _572  and  _573
REMARK  232  A    between atoms: _576  and  _578
REMARK  233  A    between atoms: _578  and  _579
REMARK  234  A    between atoms: _578  and  _581
REMARK  235  A    between atoms: _581  and  _582
REMARK  236  A    between atoms: _592  and  _594
REMARK  237  A    between atoms: _594  and  _595
REMARK  238  A    between atoms: _594  and  _597
REMARK  239  A    between atoms: _597  and  _598
REMARK  240  A    between atoms: _598  and  _599
REMARK  241  A    between atoms: _601  and  _603
REMARK  242  A    between atoms: _603  and  _604
REMARK  243  A    between atoms: _603  and  _606
REMARK  244  A    between atoms: _606  and  _607
REMARK  245  A    between atoms: _610  and  _612
REMARK  246  A    between atoms: _612  and  _613
REMARK  247  A    between atoms: _612  and  _615
REMARK  248  A    between atoms: _615  and  _616
REMARK  249  A    between atoms: _619  and  _621
REMARK  250  A    between atoms: _621  and  _622
REMARK  251  A    between atoms: _625  and  _627
REMARK  252  A    between atoms: _627  and  _628
REMARK  253  A    between atoms: _627  and  _630
REMARK  254  A    between atoms: _630  and  _631
REMARK  255  A    between atoms: _634  and  _636
REMARK  256  A    between atoms: _636  and  _637
REMARK  257  A    between atoms: _639  and  _641
REMARK  258  A    between atoms: _641  and  _642
REMARK  259  A    between atoms: _641  and  _644
REMARK  260  A    between atoms: _644  and  _645
REMARK  261  A    between atoms: _650  and  _652
REMARK  262  A    between atoms: _652  and  _653
REMARK  263  A    between atoms: _652  and  _655
REMARK  264  A    between atoms: _655  and  _656
REMARK                            x       y       z     vdW  Elec       q    Type
REMARK                         _______ _______ _______ _____ _____    ______ ____
ROOT
ATOM      1  O   HOH     1      14.556 108.664  11.219  0.00  0.00    +0.000 OA
ENDROOT
TORSDOF 0
REMARK  Name = ../refined-set-2016/4c1t/4c1t_pocket.pdb
REMARK  264 active torsions:
REMARK  status: ('A' for Active; 'I' for Inactive)
REMARK    1  A    between atoms: _1  and  _3
REMARK    2  A    between atoms: _3  and  _4
REMARK    3  A    between atoms: _3  and  _6
REMARK    4  A    between atoms: _6  and  _7
REMARK    5  A    between atoms: _12  and  _14
REMARK    6  A    between atoms: _14  and  _15
REMARK    7  A    between atoms: _14  and  _17
REMARK    8  A    between atoms: _17  and  _18
REMARK    9  A    between atoms: _23  and  _25
REMARK   10  A    between atoms: _25  and  _26
REMARK   11  A    between atoms: _29  and  _31
REMARK   12  A    between atoms: _31  and  _32
REMARK   13  A    between atoms: _31  and  _34
REMARK   14  A    between atoms: _34  and  _35
REMARK   15  A    between atoms: _37  and  _39
REMARK   16  A    between atoms: _39  and  _40
REMARK   17  A    between atoms: _43  and  _45
REMARK   18  A    between atoms: _45  and  _46
REMARK   19  A    between atoms: _48  and  _50
REMARK   20  A    between atoms: _50  and  _51
REMARK   21  A    between atoms: _50  and  _53
REMARK   22  A    between atoms: _53  and  _54
REMARK   23  A    between atoms: _54  and  _55
REMARK   24  A    between atoms: _58  and  _60
REMARK   25  A    between atoms: _60  and  _61
REMARK   26  A    between atoms: _63  and  _65
REMARK   27  A    between atoms: _65  and  _66
REMARK   28  A    between atoms: _65  and  _68
REMARK   29  A    between atoms: _68  and  _69
REMARK   30  A    between atoms: _69  and  _70
REMARK   31  A    between atoms: _70  and  _71
REMARK   32  A    between atoms: _80  and  _82
REMARK   33  A    between atoms: _82  and  _83
REMARK   34  A    between atoms: _82  and  _85
REMARK   35  A    between atoms: _85  and  _86
REMARK   36  A    between atoms: _86  and  _87
REMARK   37  A    between atoms: _92  and  _94
REMARK   38  A    between atoms: _94  and  _95
REMARK   39  A    between atoms: _94  and  _97
REMARK   40  A    between atoms: _97  and  _98
REMARK   41  A    between atoms: _103  and  _104
REMARK   42  A    between atoms: _106  and  _108
REMARK   43  A    between atoms: _108  and  _109
REMARK   44  A    between atoms: _108  and  _111
REMARK   45  A    between atoms: _111  and  _112
REMARK   46  A    between atoms: _122  and  _124
REMARK   47  A    between atoms: _124  and  _125
REMARK   48  A    between atoms: _124  and  _127
REMARK   49  A    between atoms: _127  and  _128
REMARK   50  A    between atoms: _131  and  _133
REMARK   51  A    between atoms: _133  and  _134
REMARK   52  A    between atoms: _133  and  _136
REMARK   53  A    between atoms: _136  and  _137
REMARK   54  A    between atoms: _137  and  _138
REMARK   55  A    between atoms: _143  and  _145
REMARK   56  A    between atoms: _145  and  _146
REMARK   57  A    between atoms: _145  and  _148
REMARK   58  A    between atoms: _148  and  _149
REMARK   59  A    between atoms: _154  and  _156
REMARK   60  A    between atoms: _156  and  _157
REMARK   61  A    between atoms: _156  and  _159
REMARK   62  A    between atoms: _159  and  _160
REMARK   63  A    between atoms: _160  and  _161
REMARK   64  A    between atoms: _164  and  _166
REMARK   65  A    between atoms: _166  and  _167
REMARK   66  A    between atoms: _166  and  _169
REMARK   67  A    between atoms: _169  and  _170
REMARK   68  A    between atoms: _173  and  _175
REMARK   69  A    between atoms: _175  and  _176
REMARK   70  A    between atoms: _175  and  _178
REMARK   71  A    between atoms: _178  and  _179
REMARK   72  A    between atoms: _185  and  _187
REMARK   73  A    between atoms: _187  and  _188
REMARK   74  A    between atoms: _191  and  _193
REMARK   75  A    between atoms: _193  and  _194
REMARK   76  A    between atoms: _196  and  _198
REMARK   77  A    between atoms: _198  and  _199
REMARK   78  A    between atoms: _198  and  _201
REMARK   79  A    between atoms: _201  and  _202
REMARK   80  A    between atoms: _202  and  _203
REMARK   81  A    between atoms: _203  and  _204
REMARK   82  A    between atoms: _204  and  _205
REMARK   83  A    between atoms: _209  and  _211
REMARK   84  A    between atoms: _211  and  _212
REMARK   85  A    between atoms: _211  and  _214
REMARK   86  A    between atoms: _214  and  _215
REMARK   87  A    between atoms: _218  and  _220
REMARK   88  A    between atoms: _220  and  _221
REMARK   89  A    between atoms: _220  and  _223
REMARK   90  A    between atoms: _223  and  _224
REMARK   91  A    between atoms: _224  and  _225
REMARK   92  A    between atoms: _230  and  _232
REMARK   93  A    between atoms: _232  and  _233
REMARK   94  A    between atoms: _232  and  _235
REMARK   95  A    between atoms: _235  and  _236
REMARK   96  A    between atoms: _236  and  _237
REMARK   97  A    between atoms: _239  and  _241
REMARK   98  A    between atoms: _241  and  _242
REMARK   99  A    between atoms: _241  and  _244
REMARK  100  A    between atoms: _244  and  _245
REMARK  101  A    between atoms: _247  and  _249
REMARK  102  A    between atoms: _249  and  _250
REMARK  103  A    between atoms: _249  and  _252
REMARK  104  A    between atoms: _252  and  _253
REMARK  105  A    between atoms: _256  and  _258
REMARK  106  A    between atoms: _258  and  _259
REMARK  107  A    between atoms: _261  and  _263
REMARK  108  A    between atoms: _263  and  _264
REMARK  109  A    between atoms: _263  and  _266
REMARK  110  A    between atoms: _266  and  _267
REMARK  111  A    between atoms: _267  and  _268
REMARK  112  A    between atoms: _268  and  _269
REMARK  113  A    between atoms: _269  and  _270
REMARK  114  A    between atoms: _274  and  _276
REMARK  115  A    between atoms: _276  and  _277
REMARK  116  A    between atoms: _276  and  _279
REMARK  117  A    between atoms: _279  and  _280
REMARK  118  A    between atoms: _282  and  _284
REMARK  119  A    between atoms: _284  and  _285
REMARK  120  A    between atoms: _284  and  _287
REMARK  121  A    between atoms: _287  and  _288
REMARK  122  A    between atoms: _288  and  _289
REMARK  123  A    between atoms: _292  and  _294
REMARK  124  A    between atoms: _294  and  _295
REMARK  125  A    between atoms: _294  and  _297
REMARK  126  A    between atoms: _297  and  _298
REMARK  127  A    between atoms: _301  and  _303
REMARK  128  A    between atoms: _303  and  _304
REMARK  129  A    between atoms: _307  and  _309
REMARK  130  A    between atoms: _309  and  _310
REMARK  131  A    between atoms: _309  and  _312
REMARK  132  A    between atoms: _312  and  _313
REMARK  133  A    between atoms: _324  and  _325
REMARK  134  A    between atoms: _330  and  _332
REMARK  135  A    between atoms: _332  and  _333
REMARK  136  A    between atoms: _336  and  _338
REMARK  137  A    between atoms: _338  and  _339
REMARK  138  A    between atoms: _338  and  _341
REMARK  139  A    between atoms: _341  and  _342
REMARK  140  A    between atoms: _347  and  _349
REMARK  141  A    between atoms: _349  and  _350
REMARK  142  A    between atoms: _349  and  _352
REMARK  143  A    between atoms: _352  and  _353
REMARK  144  A    between atoms: _358  and  _359
REMARK  145  A    between atoms: _361  and  _363
REMARK  146  A    between atoms: _363  and  _364
REMARK  147  A    between atoms: _367  and  _369
REMARK  148  A    between atoms: _369  and  _370
REMARK  149  A    between atoms: _369  and  _372
REMARK  150  A    between atoms: _372  and  _373
REMARK  151  A    between atoms: _373  and  _374
REMARK  152  A    between atoms: _379  and  _381
REMARK  153  A    between atoms: _381  and  _382
REMARK  154  A    between atoms: _381  and  _384
REMARK  155  A    between atoms: _384  and  _385
REMARK  156  A    between atoms: _385  and  _386
REMARK  157  A    between atoms: _391  and  _393
REMARK  158  A    between atoms: _393  and  _394
REMARK  159  A    between atoms: _393  and  _396
REMARK  160  A    between atoms: _396  and  _397
REMARK  161  A    between atoms: _397  and  _398
REMARK  162  A    between atoms: _400  and  _402
REMARK  163  A    between atoms: _402  and  _403
REMARK  164  A    between atoms: _405  and  _407
REMARK  165  A    between atoms: _407  and  _408
REMARK  166  A    between atoms: _411  and  _413
REMARK  167  A    between atoms: _413  and  _414
REMARK  168  A    between atoms: _413  and  _416
REMARK  169  A    between atoms: _416  and  _417
REMARK  170  A    between atoms: _427  and  _429
REMARK  171  A    between atoms: _429  and  _430
REMARK  172  A    between atoms: _429  and  _432
REMARK  173  A    between atoms: _432  and  _433
REMARK  174  A    between atoms: _433  and  _434
REMARK  175  A    between atoms: _437  and  _439
REMARK  176  A    between atoms: _439  and  _440
REMARK  177  A    between atoms: _442  and  _444
REMARK  178  A    between atoms: _444  and  _445
REMARK  179  A    between atoms: _444  and  _447
REMARK  180  A    between atoms: _450  and  _452
REMARK  181  A    between atoms: _452  and  _453
REMARK  182  A    between atoms: _452  and  _455
REMARK  183  A    between atoms: _455  and  _456
REMARK  184  A    between atoms: _459  and  _461
REMARK  185  A    between atoms: _461  and  _462
REMARK  186  A    between atoms: _461  and  _464
REMARK  187  A    between atoms: _464  and  _465
REMARK  188  A    between atoms: _468  and  _470
REMARK  189  A    between atoms: _470  and  _471
REMARK  190  A    between atoms: _470  and  _473
REMARK  191  A    between atoms: _473  and  _474
REMARK  192  A    between atoms: _474  and  _475
REMARK  193  A    between atoms: _477  and  _479
REMARK  194  A    between atoms: _479  and  _480
REMARK  195  A    between atoms: _482  and  _484
REMARK  196  A    between atoms: _484  and  _485
REMARK  197  A    between atoms: _487  and  _489
REMARK  198  A    between atoms: _489  and  _490
REMARK  199  A    between atoms: _489  and  _492
REMARK  200  A    between atoms: _495  and  _497
REMARK  201  A    between atoms: _497  and  _498
REMARK  202  A    between atoms: _497  and  _500
REMARK  203  A    between atoms: _500  and  _501
REMARK  204  A    between atoms: _504  and  _506
REMARK  205  A    between atoms: _506  and  _507
REMARK  206  A    between atoms: _506  and  _509
REMARK  207  A    between atoms: _509  and  _510
REMARK  208  A    between atoms: _515  and  _516
REMARK  209  A    between atoms: _518  and  _520
REMARK  210  A    between atoms: _520  and  _521
REMARK  211  A    between atoms: _520  and  _523
REMARK  212  A    between atoms: _523  and  _524
REMARK  213  A    between atoms: _529  and  _530
REMARK  214  A    between atoms: _532  and  _534
REMARK  215  A    between atoms: _534  and  _535
REMARK  216  A    between atoms: _538  and  _540
REMARK  217  A    between atoms: _540  and  _541
REMARK  218  A    between atoms: _540  and  _543
REMARK  219  A    between atoms: _543  and  _544
REMARK  220  A    between atoms: _550  and  _552
REMARK  221  A    between atoms: _552  and  _553
REMARK  222  A    between atoms: _552  and  _555
REMARK  223  A    between atoms: _555  and  _556
REMARK  224  A    between atoms: _558  and  _560
REMARK  225  A    between atoms: _560  and  _561
REMARK  226  A    between atoms: _560  and  _563
REMARK  227  A    between atoms: _563  and  _564
REMARK  228  A    between atoms: _567  and  _569
REMARK  229  A    between atoms: _569  and  _570
REMARK  230  A    between atoms: _569  and  _572
REMARK  231  A    between atoms: _572  and  _573
REMARK  232  A    between atoms: _576  and  _578
REMARK  233  A    between atoms: _578  and  _579
REMARK  234  A    between atoms: _578  and  _581
REMARK  235  A    between atoms: _581  and  _582
REMARK  236  A    between atoms: _592  and  _594
REMARK  237  A    between atoms: _594  and  _595
REMARK  238  A    between atoms: _594  and  _597
REMARK  239  A    between atoms: _597  and  _598
REMARK  240  A    between atoms: _598  and  _599
REMARK  241  A    between atoms: _601  and  _603
REMARK  242  A    between atoms: _603  and  _604
REMARK  243  A    between atoms: _603  and  _606
REMARK  244  A    between atoms: _606  and  _607
REMARK  245  A    between atoms: _610  and  _612
REMARK  246  A    between atoms: _612  and  _613
REMARK  247  A    between atoms: _612  and  _615
REMARK  248  A    between atoms: _615  and  _616
REMARK  249  A    between atoms: _619  and  _621
REMARK  250  A    between atoms: _621  and  _622
REMARK  251  A    between atoms: _625  and  _627
REMARK  252  A    between atoms: _627  and  _628
REMARK  253  A    between atoms: _627  and  _630
REMARK  254  A    between atoms: _630  and  _631
REMARK  255  A    between atoms: _634  and  _636
REMARK  256  A    between atoms: _636  and  _637
REMARK  257  A    between atoms: _639  and  _641
REMARK  258  A    between atoms: _641  and  _642
REMARK  259  A    between atoms: _641  and  _644
REMARK  260  A    between atoms: _644  and  _645
REMARK  261  A    between atoms: _650  and  _652
REMARK  262  A    between atoms: _652  and  _653
REMARK  263  A    between atoms: _652  and  _655
REMARK  264  A    between atoms: _655  and  _656
REMARK                            x       y       z     vdW  Elec       q    Type
REMARK                         _______ _______ _______ _____ _____    ______ ____
ROOT
ATOM      1  O   HOH     1      10.484 112.339  16.720  0.00  0.00    +0.000 OA
ENDROOT
TORSDOF 0
REMARK  Name = ../refined-set-2016/4c1t/4c1t_pocket.pdb
REMARK  264 active torsions:
REMARK  status: ('A' for Active; 'I' for Inactive)
REMARK    1  A    between atoms: _1  and  _3
REMARK    2  A    between atoms: _3  and  _4
REMARK    3  A    between atoms: _3  and  _6
REMARK    4  A    between atoms: _6  and  _7
REMARK    5  A    between atoms: _12  and  _14
REMARK    6  A    between atoms: _14  and  _15
REMARK    7  A    between atoms: _14  and  _17
REMARK    8  A    between atoms: _17  and  _18
REMARK    9  A    between atoms: _23  and  _25
REMARK   10  A    between atoms: _25  and  _26
REMARK   11  A    between atoms: _29  and  _31
REMARK   12  A    between atoms: _31  and  _32
REMARK   13  A    between atoms: _31  and  _34
REMARK   14  A    between atoms: _34  and  _35
REMARK   15  A    between atoms: _37  and  _39
REMARK   16  A    between atoms: _39  and  _40
REMARK   17  A    between atoms: _43  and  _45
REMARK   18  A    between atoms: _45  and  _46
REMARK   19  A    between atoms: _48  and  _50
REMARK   20  A    between atoms: _50  and  _51
REMARK   21  A    between atoms: _50  and  _53
REMARK   22  A    between atoms: _53  and  _54
REMARK   23  A    between atoms: _54  and  _55
REMARK   24  A    between atoms: _58  and  _60
REMARK   25  A    between atoms: _60  and  _61
REMARK   26  A    between atoms: _63  and  _65
REMARK   27  A    between atoms: _65  and  _66
REMARK   28  A    between atoms: _65  and  _68
REMARK   29  A    between atoms: _68  and  _69
REMARK   30  A    between atoms: _69  and  _70
REMARK   31  A    between atoms: _70  and  _71
REMARK   32  A    between atoms: _80  and  _82
REMARK   33  A    between atoms: _82  and  _83
REMARK   34  A    between atoms: _82  and  _85
REMARK   35  A    between atoms: _85  and  _86
REMARK   36  A    between atoms: _86  and  _87
REMARK   37  A    between atoms: _92  and  _94
REMARK   38  A    between atoms: _94  and  _95
REMARK   39  A    between atoms: _94  and  _97
REMARK   40  A    between atoms: _97  and  _98
REMARK   41  A    between atoms: _103  and  _104
REMARK   42  A    between atoms: _106  and  _108
REMARK   43  A    between atoms: _108  and  _109
REMARK   44  A    between atoms: _108  and  _111
REMARK   45  A    between atoms: _111  and  _112
REMARK   46  A    between atoms: _122  and  _124
REMARK   47  A    between atoms: _124  and  _125
REMARK   48  A    between atoms: _124  and  _127
REMARK   49  A    between atoms: _127  and  _128
REMARK   50  A    between atoms: _131  and  _133
REMARK   51  A    between atoms: _133  and  _134
REMARK   52  A    between atoms: _133  and  _136
REMARK   53  A    between atoms: _136  and  _137
REMARK   54  A    between atoms: _137  and  _138
REMARK   55  A    between atoms: _143  and  _145
REMARK   56  A    between atoms: _145  and  _146
REMARK   57  A    between atoms: _145  and  _148
REMARK   58  A    between atoms: _148  and  _149
REMARK   59  A    between atoms: _154  and  _156
REMARK   60  A    between atoms: _156  and  _157
REMARK   61  A    between atoms: _156  and  _159
REMARK   62  A    between atoms: _159  and  _160
REMARK   63  A    between atoms: _160  and  _161
REMARK   64  A    between atoms: _164  and  _166
REMARK   65  A    between atoms: _166  and  _167
REMARK   66  A    between atoms: _166  and  _169
REMARK   67  A    between atoms: _169  and  _170
REMARK   68  A    between atoms: _173  and  _175
REMARK   69  A    between atoms: _175  and  _176
REMARK   70  A    between atoms: _175  and  _178
REMARK   71  A    between atoms: _178  and  _179
REMARK   72  A    between atoms: _185  and  _187
REMARK   73  A    between atoms: _187  and  _188
REMARK   74  A    between atoms: _191  and  _193
REMARK   75  A    between atoms: _193  and  _194
REMARK   76  A    between atoms: _196  and  _198
REMARK   77  A    between atoms: _198  and  _199
REMARK   78  A    between atoms: _198  and  _201
REMARK   79  A    between atoms: _201  and  _202
REMARK   80  A    between atoms: _202  and  _203
REMARK   81  A    between atoms: _203  and  _204
REMARK   82  A    between atoms: _204  and  _205
REMARK   83  A    between atoms: _209  and  _211
REMARK   84  A    between atoms: _211  and  _212
REMARK   85  A    between atoms: _211  and  _214
REMARK   86  A    between atoms: _214  and  _215
REMARK   87  A    between atoms: _218  and  _220
REMARK   88  A    between atoms: _220  and  _221
REMARK   89  A    between atoms: _220  and  _223
REMARK   90  A    between atoms: _223  and  _224
REMARK   91  A    between atoms: _224  and  _225
REMARK   92  A    between atoms: _230  and  _232
REMARK   93  A    between atoms: _232  and  _233
REMARK   94  A    between atoms: _232  and  _235
REMARK   95  A    between atoms: _235  and  _236
REMARK   96  A    between atoms: _236  and  _237
REMARK   97  A    between atoms: _239  and  _241
REMARK   98  A    between atoms: _241  and  _242
REMARK   99  A    between atoms: _241  and  _244
REMARK  100  A    between atoms: _244  and  _245
REMARK  101  A    between atoms: _247  and  _249
REMARK  102  A    between atoms: _249  and  _250
REMARK  103  A    between atoms: _249  and  _252
REMARK  104  A    between atoms: _252  and  _253
REMARK  105  A    between atoms: _256  and  _258
REMARK  106  A    between atoms: _258  and  _259
REMARK  107  A    between atoms: _261  and  _263
REMARK  108  A    between atoms: _263  and  _264
REMARK  109  A    between atoms: _263  and  _266
REMARK  110  A    between atoms: _266  and  _267
REMARK  111  A    between atoms: _267  and  _268
REMARK  112  A    between atoms: _268  and  _269
REMARK  113  A    between atoms: _269  and  _270
REMARK  114  A    between atoms: _274  and  _276
REMARK  115  A    between atoms: _276  and  _277
REMARK  116  A    between atoms: _276  and  _279
REMARK  117  A    between atoms: _279  and  _280
REMARK  118  A    between atoms: _282  and  _284
REMARK  119  A    between atoms: _284  and  _285
REMARK  120  A    between atoms: _284  and  _287
REMARK  121  A    between atoms: _287  and  _288
REMARK  122  A    between atoms: _288  and  _289
REMARK  123  A    between atoms: _292  and  _294
REMARK  124  A    between atoms: _294  and  _295
REMARK  125  A    between atoms: _294  and  _297
REMARK  126  A    between atoms: _297  and  _298
REMARK  127  A    between atoms: _301  and  _303
REMARK  128  A    between atoms: _303  and  _304
REMARK  129  A    between atoms: _307  and  _309
REMARK  130  A    between atoms: _309  and  _310
REMARK  131  A    between atoms: _309  and  _312
REMARK  132  A    between atoms: _312  and  _313
REMARK  133  A    between atoms: _324  and  _325
REMARK  134  A    between atoms: _330  and  _332
REMARK  135  A    between atoms: _332  and  _333
REMARK  136  A    between atoms: _336  and  _338
REMARK  137  A    between atoms: _338  and  _339
REMARK  138  A    between atoms: _338  and  _341
REMARK  139  A    between atoms: _341  and  _342
REMARK  140  A    between atoms: _347  and  _349
REMARK  141  A    between atoms: _349  and  _350
REMARK  142  A    between atoms: _349  and  _352
REMARK  143  A    between atoms: _352  and  _353
REMARK  144  A    between atoms: _358  and  _359
REMARK  145  A    between atoms: _361  and  _363
REMARK  146  A    between atoms: _363  and  _364
REMARK  147  A    between atoms: _367  and  _369
REMARK  148  A    between atoms: _369  and  _370
REMARK  149  A    between atoms: _369  and  _372
REMARK  150  A    between atoms: _372  and  _373
REMARK  151  A    between atoms: _373  and  _374
REMARK  152  A    between atoms: _379  and  _381
REMARK  153  A    between atoms: _381  and  _382
REMARK  154  A    between atoms: _381  and  _384
REMARK  155  A    between atoms: _384  and  _385
REMARK  156  A    between atoms: _385  and  _386
REMARK  157  A    between atoms: _391  and  _393
REMARK  158  A    between atoms: _393  and  _394
REMARK  159  A    between atoms: _393  and  _396
REMARK  160  A    between atoms: _396  and  _397
REMARK  161  A    between atoms: _397  and  _398
REMARK  162  A    between atoms: _400  and  _402
REMARK  163  A    between atoms: _402  and  _403
REMARK  164  A    between atoms: _405  and  _407
REMARK  165  A    between atoms: _407  and  _408
REMARK  166  A    between atoms: _411  and  _413
REMARK  167  A    between atoms: _413  and  _414
REMARK  168  A    between atoms: _413  and  _416
REMARK  169  A    between atoms: _416  and  _417
REMARK  170  A    between atoms: _427  and  _429
REMARK  171  A    between atoms: _429  and  _430
REMARK  172  A    between atoms: _429  and  _432
REMARK  173  A    between atoms: _432  and  _433
REMARK  174  A    between atoms: _433  and  _434
REMARK  175  A    between atoms: _437  and  _439
REMARK  176  A    between atoms: _439  and  _440
REMARK  177  A    between atoms: _442  and  _444
REMARK  178  A    between atoms: _444  and  _445
REMARK  179  A    between atoms: _444  and  _447
REMARK  180  A    between atoms: _450  and  _452
REMARK  181  A    between atoms: _452  and  _453
REMARK  182  A    between atoms: _452  and  _455
REMARK  183  A    between atoms: _455  and  _456
REMARK  184  A    between atoms: _459  and  _461
REMARK  185  A    between atoms: _461  and  _462
REMARK  186  A    between atoms: _461  and  _464
REMARK  187  A    between atoms: _464  and  _465
REMARK  188  A    between atoms: _468  and  _470
REMARK  189  A    between atoms: _470  and  _471
REMARK  190  A    between atoms: _470  and  _473
REMARK  191  A    between atoms: _473  and  _474
REMARK  192  A    between atoms: _474  and  _475
REMARK  193  A    between atoms: _477  and  _479
REMARK  194  A    between atoms: _479  and  _480
REMARK  195  A    between atoms: _482  and  _484
REMARK  196  A    between atoms: _484  and  _485
REMARK  197  A    between atoms: _487  and  _489
REMARK  198  A    between atoms: _489  and  _490
REMARK  199  A    between atoms: _489  and  _492
REMARK  200  A    between atoms: _495  and  _497
REMARK  201  A    between atoms: _497  and  _498
REMARK  202  A    between atoms: _497  and  _500
REMARK  203  A    between atoms: _500  and  _501
REMARK  204  A    between atoms: _504  and  _506
REMARK  205  A    between atoms: _506  and  _507
REMARK  206  A    between atoms: _506  and  _509
REMARK  207  A    between atoms: _509  and  _510
REMARK  208  A    between atoms: _515  and  _516
REMARK  209  A    between atoms: _518  and  _520
REMARK  210  A    between atoms: _520  and  _521
REMARK  211  A    between atoms: _520  and  _523
REMARK  212  A    between atoms: _523  and  _524
REMARK  213  A    between atoms: _529  and  _530
REMARK  214  A    between atoms: _532  and  _534
REMARK  215  A    between atoms: _534  and  _535
REMARK  216  A    between atoms: _538  and  _540
REMARK  217  A    between atoms: _540  and  _541
REMARK  218  A    between atoms: _540  and  _543
REMARK  219  A    between atoms: _543  and  _544
REMARK  220  A    between atoms: _550  and  _552
REMARK  221  A    between atoms: _552  and  _553
REMARK  222  A    between atoms: _552  and  _555
REMARK  223  A    between atoms: _555  and  _556
REMARK  224  A    between atoms: _558  and  _560
REMARK  225  A    between atoms: _560  and  _561
REMARK  226  A    between atoms: _560  and  _563
REMARK  227  A    between atoms: _563  and  _564
REMARK  228  A    between atoms: _567  and  _569
REMARK  229  A    between atoms: _569  and  _570
REMARK  230  A    between atoms: _569  and  _572
REMARK  231  A    between atoms: _572  and  _573
REMARK  232  A    between atoms: _576  and  _578
REMARK  233  A    between atoms: _578  and  _579
REMARK  234  A    between atoms: _578  and  _581
REMARK  235  A    between atoms: _581  and  _582
REMARK  236  A    between atoms: _592  and  _594
REMARK  237  A    between atoms: _594  and  _595
REMARK  238  A    between atoms: _594  and  _597
REMARK  239  A    between atoms: _597  and  _598
REMARK  240  A    between atoms: _598  and  _599
REMARK  241  A    between atoms: _601  and  _603
REMARK  242  A    between atoms: _603  and  _604
REMARK  243  A    between atoms: _603  and  _606
REMARK  244  A    between atoms: _606  and  _607
REMARK  245  A    between atoms: _610  and  _612
REMARK  246  A    between atoms: _612  and  _613
REMARK  247  A    between atoms: _612  and  _615
REMARK  248  A    between atoms: _615  and  _616
REMARK  249  A    between atoms: _619  and  _621
REMARK  250  A    between atoms: _621  and  _622
REMARK  251  A    between atoms: _625  and  _627
REMARK  252  A    between atoms: _627  and  _628
REMARK  253  A    between atoms: _627  and  _630
REMARK  254  A    between atoms: _630  and  _631
REMARK  255  A    between atoms: _634  and  _636
REMARK  256  A    between atoms: _636  and  _637
REMARK  257  A    between atoms: _639  and  _641
REMARK  258  A    between atoms: _641  and  _642
REMARK  259  A    between atoms: _641  and  _644
REMARK  260  A    between atoms: _644  and  _645
REMARK  261  A    between atoms: _650  and  _652
REMARK  262  A    between atoms: _652  and  _653
REMARK  263  A    between atoms: _652  and  _655
REMARK  264  A    between atoms: _655  and  _656
REMARK                            x       y       z     vdW  Elec       q    Type
REMARK                         _______ _______ _______ _____ _____    ______ ____
ROOT
ATOM      1  O   HOH     1      12.568 111.958  10.785  0.00  0.00    +0.000 OA
ENDROOT
TORSDOF 0
REMARK  Name = ../refined-set-2016/4c1t/4c1t_pocket.pdb
REMARK  264 active torsions:
REMARK  status: ('A' for Active; 'I' for Inactive)
REMARK    1  A    between atoms: _1  and  _3
REMARK    2  A    between atoms: _3  and  _4
REMARK    3  A    between atoms: _3  and  _6
REMARK    4  A    between atoms: _6  and  _7
REMARK    5  A    between atoms: _12  and  _14
REMARK    6  A    between atoms: _14  and  _15
REMARK    7  A    between atoms: _14  and  _17
REMARK    8  A    between atoms: _17  and  _18
REMARK    9  A    between atoms: _23  and  _25
REMARK   10  A    between atoms: _25  and  _26
REMARK   11  A    between atoms: _29  and  _31
REMARK   12  A    between atoms: _31  and  _32
REMARK   13  A    between atoms: _31  and  _34
REMARK   14  A    between atoms: _34  and  _35
REMARK   15  A    between atoms: _37  and  _39
REMARK   16  A    between atoms: _39  and  _40
REMARK   17  A    between atoms: _43  and  _45
REMARK   18  A    between atoms: _45  and  _46
REMARK   19  A    between atoms: _48  and  _50
REMARK   20  A    between atoms: _50  and  _51
REMARK   21  A    between atoms: _50  and  _53
REMARK   22  A    between atoms: _53  and  _54
REMARK   23  A    between atoms: _54  and  _55
REMARK   24  A    between atoms: _58  and  _60
REMARK   25  A    between atoms: _60  and  _61
REMARK   26  A    between atoms: _63  and  _65
REMARK   27  A    between atoms: _65  and  _66
REMARK   28  A    between atoms: _65  and  _68
REMARK   29  A    between atoms: _68  and  _69
REMARK   30  A    between atoms: _69  and  _70
REMARK   31  A    between atoms: _70  and  _71
REMARK   32  A    between atoms: _80  and  _82
REMARK   33  A    between atoms: _82  and  _83
REMARK   34  A    between atoms: _82  and  _85
REMARK   35  A    between atoms: _85  and  _86
REMARK   36  A    between atoms: _86  and  _87
REMARK   37  A    between atoms: _92  and  _94
REMARK   38  A    between atoms: _94  and  _95
REMARK   39  A    between atoms: _94  and  _97
REMARK   40  A    between atoms: _97  and  _98
REMARK   41  A    between atoms: _103  and  _104
REMARK   42  A    between atoms: _106  and  _108
REMARK   43  A    between atoms: _108  and  _109
REMARK   44  A    between atoms: _108  and  _111
REMARK   45  A    between atoms: _111  and  _112
REMARK   46  A    between atoms: _122  and  _124
REMARK   47  A    between atoms: _124  and  _125
REMARK   48  A    between atoms: _124  and  _127
REMARK   49  A    between atoms: _127  and  _128
REMARK   50  A    between atoms: _131  and  _133
REMARK   51  A    between atoms: _133  and  _134
REMARK   52  A    between atoms: _133  and  _136
REMARK   53  A    between atoms: _136  and  _137
REMARK   54  A    between atoms: _137  and  _138
REMARK   55  A    between atoms: _143  and  _145
REMARK   56  A    between atoms: _145  and  _146
REMARK   57  A    between atoms: _145  and  _148
REMARK   58  A    between atoms: _148  and  _149
REMARK   59  A    between atoms: _154  and  _156
REMARK   60  A    between atoms: _156  and  _157
REMARK   61  A    between atoms: _156  and  _159
REMARK   62  A    between atoms: _159  and  _160
REMARK   63  A    between atoms: _160  and  _161
REMARK   64  A    between atoms: _164  and  _166
REMARK   65  A    between atoms: _166  and  _167
REMARK   66  A    between atoms: _166  and  _169
REMARK   67  A    between atoms: _169  and  _170
REMARK   68  A    between atoms: _173  and  _175
REMARK   69  A    between atoms: _175  and  _176
REMARK   70  A    between atoms: _175  and  _178
REMARK   71  A    between atoms: _178  and  _179
REMARK   72  A    between atoms: _185  and  _187
REMARK   73  A    between atoms: _187  and  _188
REMARK   74  A    between atoms: _191  and  _193
REMARK   75  A    between atoms: _193  and  _194
REMARK   76  A    between atoms: _196  and  _198
REMARK   77  A    between atoms: _198  and  _199
REMARK   78  A    between atoms: _198  and  _201
REMARK   79  A    between atoms: _201  and  _202
REMARK   80  A    between atoms: _202  and  _203
REMARK   81  A    between atoms: _203  and  _204
REMARK   82  A    between atoms: _204  and  _205
REMARK   83  A    between atoms: _209  and  _211
REMARK   84  A    between atoms: _211  and  _212
REMARK   85  A    between atoms: _211  and  _214
REMARK   86  A    between atoms: _214  and  _215
REMARK   87  A    between atoms: _218  and  _220
REMARK   88  A    between atoms: _220  and  _221
REMARK   89  A    between atoms: _220  and  _223
REMARK   90  A    between atoms: _223  and  _224
REMARK   91  A    between atoms: _224  and  _225
REMARK   92  A    between atoms: _230  and  _232
REMARK   93  A    between atoms: _232  and  _233
REMARK   94  A    between atoms: _232  and  _235
REMARK   95  A    between atoms: _235  and  _236
REMARK   96  A    between atoms: _236  and  _237
REMARK   97  A    between atoms: _239  and  _241
REMARK   98  A    between atoms: _241  and  _242
REMARK   99  A    between atoms: _241  and  _244
REMARK  100  A    between atoms: _244  and  _245
REMARK  101  A    between atoms: _247  and  _249
REMARK  102  A    between atoms: _249  and  _250
REMARK  103  A    between atoms: _249  and  _252
REMARK  104  A    between atoms: _252  and  _253
REMARK  105  A    between atoms: _256  and  _258
REMARK  106  A    between atoms: _258  and  _259
REMARK  107  A    between atoms: _261  and  _263
REMARK  108  A    between atoms: _263  and  _264
REMARK  109  A    between atoms: _263  and  _266
REMARK  110  A    between atoms: _266  and  _267
REMARK  111  A    between atoms: _267  and  _268
REMARK  112  A    between atoms: _268  and  _269
REMARK  113  A    between atoms: _269  and  _270
REMARK  114  A    between atoms: _274  and  _276
REMARK  115  A    between atoms: _276  and  _277
REMARK  116  A    between atoms: _276  and  _279
REMARK  117  A    between atoms: _279  and  _280
REMARK  118  A    between atoms: _282  and  _284
REMARK  119  A    between atoms: _284  and  _285
REMARK  120  A    between atoms: _284  and  _287
REMARK  121  A    between atoms: _287  and  _288
REMARK  122  A    between atoms: _288  and  _289
REMARK  123  A    between atoms: _292  and  _294
REMARK  124  A    between atoms: _294  and  _295
REMARK  125  A    between atoms: _294  and  _297
REMARK  126  A    between atoms: _297  and  _298
REMARK  127  A    between atoms: _301  and  _303
REMARK  128  A    between atoms: _303  and  _304
REMARK  129  A    between atoms: _307  and  _309
REMARK  130  A    between atoms: _309  and  _310
REMARK  131  A    between atoms: _309  and  _312
REMARK  132  A    between atoms: _312  and  _313
REMARK  133  A    between atoms: _324  and  _325
REMARK  134  A    between atoms: _330  and  _332
REMARK  135  A    between atoms: _332  and  _333
REMARK  136  A    between atoms: _336  and  _338
REMARK  137  A    between atoms: _338  and  _339
REMARK  138  A    between atoms: _338  and  _341
REMARK  139  A    between atoms: _341  and  _342
REMARK  140  A    between atoms: _347  and  _349
REMARK  141  A    between atoms: _349  and  _350
REMARK  142  A    between atoms: _349  and  _352
REMARK  143  A    between atoms: _352  and  _353
REMARK  144  A    between atoms: _358  and  _359
REMARK  145  A    between atoms: _361  and  _363
REMARK  146  A    between atoms: _363  and  _364
REMARK  147  A    between atoms: _367  and  _369
REMARK  148  A    between atoms: _369  and  _370
REMARK  149  A    between atoms: _369  and  _372
REMARK  150  A    between atoms: _372  and  _373
REMARK  151  A    between atoms: _373  and  _374
REMARK  152  A    between atoms: _379  and  _381
REMARK  153  A    between atoms: _381  and  _382
REMARK  154  A    between atoms: _381  and  _384
REMARK  155  A    between atoms: _384  and  _385
REMARK  156  A    between atoms: _385  and  _386
REMARK  157  A    between atoms: _391  and  _393
REMARK  158  A    between atoms: _393  and  _394
REMARK  159  A    between atoms: _393  and  _396
REMARK  160  A    between atoms: _396  and  _397
REMARK  161  A    between atoms: _397  and  _398
REMARK  162  A    between atoms: _400  and  _402
REMARK  163  A    between atoms: _402  and  _403
REMARK  164  A    between atoms: _405  and  _407
REMARK  165  A    between atoms: _407  and  _408
REMARK  166  A    between atoms: _411  and  _413
REMARK  167  A    between atoms: _413  and  _414
REMARK  168  A    between atoms: _413  and  _416
REMARK  169  A    between atoms: _416  and  _417
REMARK  170  A    between atoms: _427  and  _429
REMARK  171  A    between atoms: _429  and  _430
REMARK  172  A    between atoms: _429  and  _432
REMARK  173  A    between atoms: _432  and  _433
REMARK  174  A    between atoms: _433  and  _434
REMARK  175  A    between atoms: _437  and  _439
REMARK  176  A    between atoms: _439  and  _440
REMARK  177  A    between atoms: _442  and  _444
REMARK  178  A    between atoms: _444  and  _445
REMARK  179  A    between atoms: _444  and  _447
REMARK  180  A    between atoms: _450  and  _452
REMARK  181  A    between atoms: _452  and  _453
REMARK  182  A    between atoms: _452  and  _455
REMARK  183  A    between atoms: _455  and  _456
REMARK  184  A    between atoms: _459  and  _461
REMARK  185  A    between atoms: _461  and  _462
REMARK  186  A    between atoms: _461  and  _464
REMARK  187  A    between atoms: _464  and  _465
REMARK  188  A    between atoms: _468  and  _470
REMARK  189  A    between atoms: _470  and  _471
REMARK  190  A    between atoms: _470  and  _473
REMARK  191  A    between atoms: _473  and  _474
REMARK  192  A    between atoms: _474  and  _475
REMARK  193  A    between atoms: _477  and  _479
REMARK  194  A    between atoms: _479  and  _480
REMARK  195  A    between atoms: _482  and  _484
REMARK  196  A    between atoms: _484  and  _485
REMARK  197  A    between atoms: _487  and  _489
REMARK  198  A    between atoms: _489  and  _490
REMARK  199  A    between atoms: _489  and  _492
REMARK  200  A    between atoms: _495  and  _497
REMARK  201  A    between atoms: _497  and  _498
REMARK  202  A    between atoms: _497  and  _500
REMARK  203  A    between atoms: _500  and  _501
REMARK  204  A    between atoms: _504  and  _506
REMARK  205  A    between atoms: _506  and  _507
REMARK  206  A    between atoms: _506  and  _509
REMARK  207  A    between atoms: _509  and  _510
REMARK  208  A    between atoms: _515  and  _516
REMARK  209  A    between atoms: _518  and  _520
REMARK  210  A    between atoms: _520  and  _521
REMARK  211  A    between atoms: _520  and  _523
REMARK  212  A    between atoms: _523  and  _524
REMARK  213  A    between atoms: _529  and  _530
REMARK  214  A    between atoms: _532  and  _534
REMARK  215  A    between atoms: _534  and  _535
REMARK  216  A    between atoms: _538  and  _540
REMARK  217  A    between atoms: _540  and  _541
REMARK  218  A    between atoms: _540  and  _543
REMARK  219  A    between atoms: _543  and  _544
REMARK  220  A    between atoms: _550  and  _552
REMARK  221  A    between atoms: _552  and  _553
REMARK  222  A    between atoms: _552  and  _555
REMARK  223  A    between atoms: _555  and  _556
REMARK  224  A    between atoms: _558  and  _560
REMARK  225  A    between atoms: _560  and  _561
REMARK  226  A    between atoms: _560  and  _563
REMARK  227  A    between atoms: _563  and  _564
REMARK  228  A    between atoms: _567  and  _569
REMARK  229  A    between atoms: _569  and  _570
REMARK  230  A    between atoms: _569  and  _572
REMARK  231  A    between atoms: _572  and  _573
REMARK  232  A    between atoms: _576  and  _578
REMARK  233  A    between atoms: _578  and  _579
REMARK  234  A    between atoms: _578  and  _581
REMARK  235  A    between atoms: _581  and  _582
REMARK  236  A    between atoms: _592  and  _594
REMARK  237  A    between atoms: _594  and  _595
REMARK  238  A    between atoms: _594  and  _597
REMARK  239  A    between atoms: _597  and  _598
REMARK  240  A    between atoms: _598  and  _599
REMARK  241  A    between atoms: _601  and  _603
REMARK  242  A    between atoms: _603  and  _604
REMARK  243  A    between atoms: _603  and  _606
REMARK  244  A    between atoms: _606  and  _607
REMARK  245  A    between atoms: _610  and  _612
REMARK  246  A    between atoms: _612  and  _613
REMARK  247  A    between atoms: _612  and  _615
REMARK  248  A    between atoms: _615  and  _616
REMARK  249  A    between atoms: _619  and  _621
REMARK  250  A    between atoms: _621  and  _622
REMARK  251  A    between atoms: _625  and  _627
REMARK  252  A    between atoms: _627  and  _628
REMARK  253  A    between atoms: _627  and  _630
REMARK  254  A    between atoms: _630  and  _631
REMARK  255  A    between atoms: _634  and  _636
REMARK  256  A    between atoms: _636  and  _637
REMARK  257  A    between atoms: _639  and  _641
REMARK  258  A    between atoms: _641  and  _642
REMARK  259  A    between atoms: _641  and  _644
REMARK  260  A    between atoms: _644  and  _645
REMARK  261  A    between atoms: _650  and  _652
REMARK  262  A    between atoms: _652  and  _653
REMARK  263  A    between atoms: _652  and  _655
REMARK  264  A    between atoms: _655  and  _656
REMARK                            x       y       z     vdW  Elec       q    Type
REMARK                         _______ _______ _______ _____ _____    ______ ____
ROOT
ATOM      1  O   HOH     1       1.344 114.796  10.038  0.00  0.00    +0.000 OA
ENDROOT
TORSDOF 0
REMARK  Name = ../refined-set-2016/4c1t/4c1t_pocket.pdb
REMARK  264 active torsions:
REMARK  status: ('A' for Active; 'I' for Inactive)
REMARK    1  A    between atoms: _1  and  _3
REMARK    2  A    between atoms: _3  and  _4
REMARK    3  A    between atoms: _3  and  _6
REMARK    4  A    between atoms: _6  and  _7
REMARK    5  A    between atoms: _12  and  _14
REMARK    6  A    between atoms: _14  and  _15
REMARK    7  A    between atoms: _14  and  _17
REMARK    8  A    between atoms: _17  and  _18
REMARK    9  A    between atoms: _23  and  _25
REMARK   10  A    between atoms: _25  and  _26
REMARK   11  A    between atoms: _29  and  _31
REMARK   12  A    between atoms: _31  and  _32
REMARK   13  A    between atoms: _31  and  _34
REMARK   14  A    between atoms: _34  and  _35
REMARK   15  A    between atoms: _37  and  _39
REMARK   16  A    between atoms: _39  and  _40
REMARK   17  A    between atoms: _43  and  _45
REMARK   18  A    between atoms: _45  and  _46
REMARK   19  A    between atoms: _48  and  _50
REMARK   20  A    between atoms: _50  and  _51
REMARK   21  A    between atoms: _50  and  _53
REMARK   22  A    between atoms: _53  and  _54
REMARK   23  A    between atoms: _54  and  _55
REMARK   24  A    between atoms: _58  and  _60
REMARK   25  A    between atoms: _60  and  _61
REMARK   26  A    between atoms: _63  and  _65
REMARK   27  A    between atoms: _65  and  _66
REMARK   28  A    between atoms: _65  and  _68
REMARK   29  A    between atoms: _68  and  _69
REMARK   30  A    between atoms: _69  and  _70
REMARK   31  A    between atoms: _70  and  _71
REMARK   32  A    between atoms: _80  and  _82
REMARK   33  A    between atoms: _82  and  _83
REMARK   34  A    between atoms: _82  and  _85
REMARK   35  A    between atoms: _85  and  _86
REMARK   36  A    between atoms: _86  and  _87
REMARK   37  A    between atoms: _92  and  _94
REMARK   38  A    between atoms: _94  and  _95
REMARK   39  A    between atoms: _94  and  _97
REMARK   40  A    between atoms: _97  and  _98
REMARK   41  A    between atoms: _103  and  _104
REMARK   42  A    between atoms: _106  and  _108
REMARK   43  A    between atoms: _108  and  _109
REMARK   44  A    between atoms: _108  and  _111
REMARK   45  A    between atoms: _111  and  _112
REMARK   46  A    between atoms: _122  and  _124
REMARK   47  A    between atoms: _124  and  _125
REMARK   48  A    between atoms: _124  and  _127
REMARK   49  A    between atoms: _127  and  _128
REMARK   50  A    between atoms: _131  and  _133
REMARK   51  A    between atoms: _133  and  _134
REMARK   52  A    between atoms: _133  and  _136
REMARK   53  A    between atoms: _136  and  _137
REMARK   54  A    between atoms: _137  and  _138
REMARK   55  A    between atoms: _143  and  _145
REMARK   56  A    between atoms: _145  and  _146
REMARK   57  A    between atoms: _145  and  _148
REMARK   58  A    between atoms: _148  and  _149
REMARK   59  A    between atoms: _154  and  _156
REMARK   60  A    between atoms: _156  and  _157
REMARK   61  A    between atoms: _156  and  _159
REMARK   62  A    between atoms: _159  and  _160
REMARK   63  A    between atoms: _160  and  _161
REMARK   64  A    between atoms: _164  and  _166
REMARK   65  A    between atoms: _166  and  _167
REMARK   66  A    between atoms: _166  and  _169
REMARK   67  A    between atoms: _169  and  _170
REMARK   68  A    between atoms: _173  and  _175
REMARK   69  A    between atoms: _175  and  _176
REMARK   70  A    between atoms: _175  and  _178
REMARK   71  A    between atoms: _178  and  _179
REMARK   72  A    between atoms: _185  and  _187
REMARK   73  A    between atoms: _187  and  _188
REMARK   74  A    between atoms: _191  and  _193
REMARK   75  A    between atoms: _193  and  _194
REMARK   76  A    between atoms: _196  and  _198
REMARK   77  A    between atoms: _198  and  _199
REMARK   78  A    between atoms: _198  and  _201
REMARK   79  A    between atoms: _201  and  _202
REMARK   80  A    between atoms: _202  and  _203
REMARK   81  A    between atoms: _203  and  _204
REMARK   82  A    between atoms: _204  and  _205
REMARK   83  A    between atoms: _209  and  _211
REMARK   84  A    between atoms: _211  and  _212
REMARK   85  A    between atoms: _211  and  _214
REMARK   86  A    between atoms: _214  and  _215
REMARK   87  A    between atoms: _218  and  _220
REMARK   88  A    between atoms: _220  and  _221
REMARK   89  A    between atoms: _220  and  _223
REMARK   90  A    between atoms: _223  and  _224
REMARK   91  A    between atoms: _224  and  _225
REMARK   92  A    between atoms: _230  and  _232
REMARK   93  A    between atoms: _232  and  _233
REMARK   94  A    between atoms: _232  and  _235
REMARK   95  A    between atoms: _235  and  _236
REMARK   96  A    between atoms: _236  and  _237
REMARK   97  A    between atoms: _239  and  _241
REMARK   98  A    between atoms: _241  and  _242
REMARK   99  A    between atoms: _241  and  _244
REMARK  100  A    between atoms: _244  and  _245
REMARK  101  A    between atoms: _247  and  _249
REMARK  102  A    between atoms: _249  and  _250
REMARK  103  A    between atoms: _249  and  _252
REMARK  104  A    between atoms: _252  and  _253
REMARK  105  A    between atoms: _256  and  _258
REMARK  106  A    between atoms: _258  and  _259
REMARK  107  A    between atoms: _261  and  _263
REMARK  108  A    between atoms: _263  and  _264
REMARK  109  A    between atoms: _263  and  _266
REMARK  110  A    between atoms: _266  and  _267
REMARK  111  A    between atoms: _267  and  _268
REMARK  112  A    between atoms: _268  and  _269
REMARK  113  A    between atoms: _269  and  _270
REMARK  114  A    between atoms: _274  and  _276
REMARK  115  A    between atoms: _276  and  _277
REMARK  116  A    between atoms: _276  and  _279
REMARK  117  A    between atoms: _279  and  _280
REMARK  118  A    between atoms: _282  and  _284
REMARK  119  A    between atoms: _284  and  _285
REMARK  120  A    between atoms: _284  and  _287
REMARK  121  A    between atoms: _287  and  _288
REMARK  122  A    between atoms: _288  and  _289
REMARK  123  A    between atoms: _292  and  _294
REMARK  124  A    between atoms: _294  and  _295
REMARK  125  A    between atoms: _294  and  _297
REMARK  126  A    between atoms: _297  and  _298
REMARK  127  A    between atoms: _301  and  _303
REMARK  128  A    between atoms: _303  and  _304
REMARK  129  A    between atoms: _307  and  _309
REMARK  130  A    between atoms: _309  and  _310
REMARK  131  A    between atoms: _309  and  _312
REMARK  132  A    between atoms: _312  and  _313
REMARK  133  A    between atoms: _324  and  _325
REMARK  134  A    between atoms: _330  and  _332
REMARK  135  A    between atoms: _332  and  _333
REMARK  136  A    between atoms: _336  and  _338
REMARK  137  A    between atoms: _338  and  _339
REMARK  138  A    between atoms: _338  and  _341
REMARK  139  A    between atoms: _341  and  _342
REMARK  140  A    between atoms: _347  and  _349
REMARK  141  A    between atoms: _349  and  _350
REMARK  142  A    between atoms: _349  and  _352
REMARK  143  A    between atoms: _352  and  _353
REMARK  144  A    between atoms: _358  and  _359
REMARK  145  A    between atoms: _361  and  _363
REMARK  146  A    between atoms: _363  and  _364
REMARK  147  A    between atoms: _367  and  _369
REMARK  148  A    between atoms: _369  and  _370
REMARK  149  A    between atoms: _369  and  _372
REMARK  150  A    between atoms: _372  and  _373
REMARK  151  A    between atoms: _373  and  _374
REMARK  152  A    between atoms: _379  and  _381
REMARK  153  A    between atoms: _381  and  _382
REMARK  154  A    between atoms: _381  and  _384
REMARK  155  A    between atoms: _384  and  _385
REMARK  156  A    between atoms: _385  and  _386
REMARK  157  A    between atoms: _391  and  _393
REMARK  158  A    between atoms: _393  and  _394
REMARK  159  A    between atoms: _393  and  _396
REMARK  160  A    between atoms: _396  and  _397
REMARK  161  A    between atoms: _397  and  _398
REMARK  162  A    between atoms: _400  and  _402
REMARK  163  A    between atoms: _402  and  _403
REMARK  164  A    between atoms: _405  and  _407
REMARK  165  A    between atoms: _407  and  _408
REMARK  166  A    between atoms: _411  and  _413
REMARK  167  A    between atoms: _413  and  _414
REMARK  168  A    between atoms: _413  and  _416
REMARK  169  A    between atoms: _416  and  _417
REMARK  170  A    between atoms: _427  and  _429
REMARK  171  A    between atoms: _429  and  _430
REMARK  172  A    between atoms: _429  and  _432
REMARK  173  A    between atoms: _432  and  _433
REMARK  174  A    between atoms: _433  and  _434
REMARK  175  A    between atoms: _437  and  _439
REMARK  176  A    between atoms: _439  and  _440
REMARK  177  A    between atoms: _442  and  _444
REMARK  178  A    between atoms: _444  and  _445
REMARK  179  A    between atoms: _444  and  _447
REMARK  180  A    between atoms: _450  and  _452
REMARK  181  A    between atoms: _452  and  _453
REMARK  182  A    between atoms: _452  and  _455
REMARK  183  A    between atoms: _455  and  _456
REMARK  184  A    between atoms: _459  and  _461
REMARK  185  A    between atoms: _461  and  _462
REMARK  186  A    between atoms: _461  and  _464
REMARK  187  A    between atoms: _464  and  _465
REMARK  188  A    between atoms: _468  and  _470
REMARK  189  A    between atoms: _470  and  _471
REMARK  190  A    between atoms: _470  and  _473
REMARK  191  A    between atoms: _473  and  _474
REMARK  192  A    between atoms: _474  and  _475
REMARK  193  A    between atoms: _477  and  _479
REMARK  194  A    between atoms: _479  and  _480
REMARK  195  A    between atoms: _482  and  _484
REMARK  196  A    between atoms: _484  and  _485
REMARK  197  A    between atoms: _487  and  _489
REMARK  198  A    between atoms: _489  and  _490
REMARK  199  A    between atoms: _489  and  _492
REMARK  200  A    between atoms: _495  and  _497
REMARK  201  A    between atoms: _497  and  _498
REMARK  202  A    between atoms: _497  and  _500
REMARK  203  A    between atoms: _500  and  _501
REMARK  204  A    between atoms: _504  and  _506
REMARK  205  A    between atoms: _506  and  _507
REMARK  206  A    between atoms: _506  and  _509
REMARK  207  A    between atoms: _509  and  _510
REMARK  208  A    between atoms: _515  and  _516
REMARK  209  A    between atoms: _518  and  _520
REMARK  210  A    between atoms: _520  and  _521
REMARK  211  A    between atoms: _520  and  _523
REMARK  212  A    between atoms: _523  and  _524
REMARK  213  A    between atoms: _529  and  _530
REMARK  214  A    between atoms: _532  and  _534
REMARK  215  A    between atoms: _534  and  _535
REMARK  216  A    between atoms: _538  and  _540
REMARK  217  A    between atoms: _540  and  _541
REMARK  218  A    between atoms: _540  and  _543
REMARK  219  A    between atoms: _543  and  _544
REMARK  220  A    between atoms: _550  and  _552
REMARK  221  A    between atoms: _552  and  _553
REMARK  222  A    between atoms: _552  and  _555
REMARK  223  A    between atoms: _555  and  _556
REMARK  224  A    between atoms: _558  and  _560
REMARK  225  A    between atoms: _560  and  _561
REMARK  226  A    between atoms: _560  and  _563
REMARK  227  A    between atoms: _563  and  _564
REMARK  228  A    between atoms: _567  and  _569
REMARK  229  A    between atoms: _569  and  _570
REMARK  230  A    between atoms: _569  and  _572
REMARK  231  A    between atoms: _572  and  _573
REMARK  232  A    between atoms: _576  and  _578
REMARK  233  A    between atoms: _578  and  _579
REMARK  234  A    between atoms: _578  and  _581
REMARK  235  A    between atoms: _581  and  _582
REMARK  236  A    between atoms: _592  and  _594
REMARK  237  A    between atoms: _594  and  _595
REMARK  238  A    between atoms: _594  and  _597
REMARK  239  A    between atoms: _597  and  _598
REMARK  240  A    between atoms: _598  and  _599
REMARK  241  A    between atoms: _601  and  _603
REMARK  242  A    between atoms: _603  and  _604
REMARK  243  A    between atoms: _603  and  _606
REMARK  244  A    between atoms: _606  and  _607
REMARK  245  A    between atoms: _610  and  _612
REMARK  246  A    between atoms: _612  and  _613
REMARK  247  A    between atoms: _612  and  _615
REMARK  248  A    between atoms: _615  and  _616
REMARK  249  A    between atoms: _619  and  _621
REMARK  250  A    between atoms: _621  and  _622
REMARK  251  A    between atoms: _625  and  _627
REMARK  252  A    between atoms: _627  and  _628
REMARK  253  A    between atoms: _627  and  _630
REMARK  254  A    between atoms: _630  and  _631
REMARK  255  A    between atoms: _634  and  _636
REMARK  256  A    between atoms: _636  and  _637
REMARK  257  A    between atoms: _639  and  _641
REMARK  258  A    between atoms: _641  and  _642
REMARK  259  A    between atoms: _641  and  _644
REMARK  260  A    between atoms: _644  and  _645
REMARK  261  A    between atoms: _650  and  _652
REMARK  262  A    between atoms: _652  and  _653
REMARK  263  A    between atoms: _652  and  _655
REMARK  264  A    between atoms: _655  and  _656
REMARK                            x       y       z     vdW  Elec       q    Type
REMARK                         _______ _______ _______ _____ _____    ______ ____
ROOT
ATOM      1  O   HOH     1      11.163 112.438  24.035  0.00  0.00    +0.000 OA
ENDROOT
TORSDOF 0
REMARK  Name = ../refined-set-2016/4c1t/4c1t_pocket.pdb
REMARK  264 active torsions:
REMARK  status: ('A' for Active; 'I' for Inactive)
REMARK    1  A    between atoms: _1  and  _3
REMARK    2  A    between atoms: _3  and  _4
REMARK    3  A    between atoms: _3  and  _6
REMARK    4  A    between atoms: _6  and  _7
REMARK    5  A    between atoms: _12  and  _14
REMARK    6  A    between atoms: _14  and  _15
REMARK    7  A    between atoms: _14  and  _17
REMARK    8  A    between atoms: _17  and  _18
REMARK    9  A    between atoms: _23  and  _25
REMARK   10  A    between atoms: _25  and  _26
REMARK   11  A    between atoms: _29  and  _31
REMARK   12  A    between atoms: _31  and  _32
REMARK   13  A    between atoms: _31  and  _34
REMARK   14  A    between atoms: _34  and  _35
REMARK   15  A    between atoms: _37  and  _39
REMARK   16  A    between atoms: _39  and  _40
REMARK   17  A    between atoms: _43  and  _45
REMARK   18  A    between atoms: _45  and  _46
REMARK   19  A    between atoms: _48  and  _50
REMARK   20  A    between atoms: _50  and  _51
REMARK   21  A    between atoms: _50  and  _53
REMARK   22  A    between atoms: _53  and  _54
REMARK   23  A    between atoms: _54  and  _55
REMARK   24  A    between atoms: _58  and  _60
REMARK   25  A    between atoms: _60  and  _61
REMARK   26  A    between atoms: _63  and  _65
REMARK   27  A    between atoms: _65  and  _66
REMARK   28  A    between atoms: _65  and  _68
REMARK   29  A    between atoms: _68  and  _69
REMARK   30  A    between atoms: _69  and  _70
REMARK   31  A    between atoms: _70  and  _71
REMARK   32  A    between atoms: _80  and  _82
REMARK   33  A    between atoms: _82  and  _83
REMARK   34  A    between atoms: _82  and  _85
REMARK   35  A    between atoms: _85  and  _86
REMARK   36  A    between atoms: _86  and  _87
REMARK   37  A    between atoms: _92  and  _94
REMARK   38  A    between atoms: _94  and  _95
REMARK   39  A    between atoms: _94  and  _97
REMARK   40  A    between atoms: _97  and  _98
REMARK   41  A    between atoms: _103  and  _104
REMARK   42  A    between atoms: _106  and  _108
REMARK   43  A    between atoms: _108  and  _109
REMARK   44  A    between atoms: _108  and  _111
REMARK   45  A    between atoms: _111  and  _112
REMARK   46  A    between atoms: _122  and  _124
REMARK   47  A    between atoms: _124  and  _125
REMARK   48  A    between atoms: _124  and  _127
REMARK   49  A    between atoms: _127  and  _128
REMARK   50  A    between atoms: _131  and  _133
REMARK   51  A    between atoms: _133  and  _134
REMARK   52  A    between atoms: _133  and  _136
REMARK   53  A    between atoms: _136  and  _137
REMARK   54  A    between atoms: _137  and  _138
REMARK   55  A    between atoms: _143  and  _145
REMARK   56  A    between atoms: _145  and  _146
REMARK   57  A    between atoms: _145  and  _148
REMARK   58  A    between atoms: _148  and  _149
REMARK   59  A    between atoms: _154  and  _156
REMARK   60  A    between atoms: _156  and  _157
REMARK   61  A    between atoms: _156  and  _159
REMARK   62  A    between atoms: _159  and  _160
REMARK   63  A    between atoms: _160  and  _161
REMARK   64  A    between atoms: _164  and  _166
REMARK   65  A    between atoms: _166  and  _167
REMARK   66  A    between atoms: _166  and  _169
REMARK   67  A    between atoms: _169  and  _170
REMARK   68  A    between atoms: _173  and  _175
REMARK   69  A    between atoms: _175  and  _176
REMARK   70  A    between atoms: _175  and  _178
REMARK   71  A    between atoms: _178  and  _179
REMARK   72  A    between atoms: _185  and  _187
REMARK   73  A    between atoms: _187  and  _188
REMARK   74  A    between atoms: _191  and  _193
REMARK   75  A    between atoms: _193  and  _194
REMARK   76  A    between atoms: _196  and  _198
REMARK   77  A    between atoms: _198  and  _199
REMARK   78  A    between atoms: _198  and  _201
REMARK   79  A    between atoms: _201  and  _202
REMARK   80  A    between atoms: _202  and  _203
REMARK   81  A    between atoms: _203  and  _204
REMARK   82  A    between atoms: _204  and  _205
REMARK   83  A    between atoms: _209  and  _211
REMARK   84  A    between atoms: _211  and  _212
REMARK   85  A    between atoms: _211  and  _214
REMARK   86  A    between atoms: _214  and  _215
REMARK   87  A    between atoms: _218  and  _220
REMARK   88  A    between atoms: _220  and  _221
REMARK   89  A    between atoms: _220  and  _223
REMARK   90  A    between atoms: _223  and  _224
REMARK   91  A    between atoms: _224  and  _225
REMARK   92  A    between atoms: _230  and  _232
REMARK   93  A    between atoms: _232  and  _233
REMARK   94  A    between atoms: _232  and  _235
REMARK   95  A    between atoms: _235  and  _236
REMARK   96  A    between atoms: _236  and  _237
REMARK   97  A    between atoms: _239  and  _241
REMARK   98  A    between atoms: _241  and  _242
REMARK   99  A    between atoms: _241  and  _244
REMARK  100  A    between atoms: _244  and  _245
REMARK  101  A    between atoms: _247  and  _249
REMARK  102  A    between atoms: _249  and  _250
REMARK  103  A    between atoms: _249  and  _252
REMARK  104  A    between atoms: _252  and  _253
REMARK  105  A    between atoms: _256  and  _258
REMARK  106  A    between atoms: _258  and  _259
REMARK  107  A    between atoms: _261  and  _263
REMARK  108  A    between atoms: _263  and  _264
REMARK  109  A    between atoms: _263  and  _266
REMARK  110  A    between atoms: _266  and  _267
REMARK  111  A    between atoms: _267  and  _268
REMARK  112  A    between atoms: _268  and  _269
REMARK  113  A    between atoms: _269  and  _270
REMARK  114  A    between atoms: _274  and  _276
REMARK  115  A    between atoms: _276  and  _277
REMARK  116  A    between atoms: _276  and  _279
REMARK  117  A    between atoms: _279  and  _280
REMARK  118  A    between atoms: _282  and  _284
REMARK  119  A    between atoms: _284  and  _285
REMARK  120  A    between atoms: _284  and  _287
REMARK  121  A    between atoms: _287  and  _288
REMARK  122  A    between atoms: _288  and  _289
REMARK  123  A    between atoms: _292  and  _294
REMARK  124  A    between atoms: _294  and  _295
REMARK  125  A    between atoms: _294  and  _297
REMARK  126  A    between atoms: _297  and  _298
REMARK  127  A    between atoms: _301  and  _303
REMARK  128  A    between atoms: _303  and  _304
REMARK  129  A    between atoms: _307  and  _309
REMARK  130  A    between atoms: _309  and  _310
REMARK  131  A    between atoms: _309  and  _312
REMARK  132  A    between atoms: _312  and  _313
REMARK  133  A    between atoms: _324  and  _325
REMARK  134  A    between atoms: _330  and  _332
REMARK  135  A    between atoms: _332  and  _333
REMARK  136  A    between atoms: _336  and  _338
REMARK  137  A    between atoms: _338  and  _339
REMARK  138  A    between atoms: _338  and  _341
REMARK  139  A    between atoms: _341  and  _342
REMARK  140  A    between atoms: _347  and  _349
REMARK  141  A    between atoms: _349  and  _350
REMARK  142  A    between atoms: _349  and  _352
REMARK  143  A    between atoms: _352  and  _353
REMARK  144  A    between atoms: _358  and  _359
REMARK  145  A    between atoms: _361  and  _363
REMARK  146  A    between atoms: _363  and  _364
REMARK  147  A    between atoms: _367  and  _369
REMARK  148  A    between atoms: _369  and  _370
REMARK  149  A    between atoms: _369  and  _372
REMARK  150  A    between atoms: _372  and  _373
REMARK  151  A    between atoms: _373  and  _374
REMARK  152  A    between atoms: _379  and  _381
REMARK  153  A    between atoms: _381  and  _382
REMARK  154  A    between atoms: _381  and  _384
REMARK  155  A    between atoms: _384  and  _385
REMARK  156  A    between atoms: _385  and  _386
REMARK  157  A    between atoms: _391  and  _393
REMARK  158  A    between atoms: _393  and  _394
REMARK  159  A    between atoms: _393  and  _396
REMARK  160  A    between atoms: _396  and  _397
REMARK  161  A    between atoms: _397  and  _398
REMARK  162  A    between atoms: _400  and  _402
REMARK  163  A    between atoms: _402  and  _403
REMARK  164  A    between atoms: _405  and  _407
REMARK  165  A    between atoms: _407  and  _408
REMARK  166  A    between atoms: _411  and  _413
REMARK  167  A    between atoms: _413  and  _414
REMARK  168  A    between atoms: _413  and  _416
REMARK  169  A    between atoms: _416  and  _417
REMARK  170  A    between atoms: _427  and  _429
REMARK  171  A    between atoms: _429  and  _430
REMARK  172  A    between atoms: _429  and  _432
REMARK  173  A    between atoms: _432  and  _433
REMARK  174  A    between atoms: _433  and  _434
REMARK  175  A    between atoms: _437  and  _439
REMARK  176  A    between atoms: _439  and  _440
REMARK  177  A    between atoms: _442  and  _444
REMARK  178  A    between atoms: _444  and  _445
REMARK  179  A    between atoms: _444  and  _447
REMARK  180  A    between atoms: _450  and  _452
REMARK  181  A    between atoms: _452  and  _453
REMARK  182  A    between atoms: _452  and  _455
REMARK  183  A    between atoms: _455  and  _456
REMARK  184  A    between atoms: _459  and  _461
REMARK  185  A    between atoms: _461  and  _462
REMARK  186  A    between atoms: _461  and  _464
REMARK  187  A    between atoms: _464  and  _465
REMARK  188  A    between atoms: _468  and  _470
REMARK  189  A    between atoms: _470  and  _471
REMARK  190  A    between atoms: _470  and  _473
REMARK  191  A    between atoms: _473  and  _474
REMARK  192  A    between atoms: _474  and  _475
REMARK  193  A    between atoms: _477  and  _479
REMARK  194  A    between atoms: _479  and  _480
REMARK  195  A    between atoms: _482  and  _484
REMARK  196  A    between atoms: _484  and  _485
REMARK  197  A    between atoms: _487  and  _489
REMARK  198  A    between atoms: _489  and  _490
REMARK  199  A    between atoms: _489  and  _492
REMARK  200  A    between atoms: _495  and  _497
REMARK  201  A    between atoms: _497  and  _498
REMARK  202  A    between atoms: _497  and  _500
REMARK  203  A    between atoms: _500  and  _501
REMARK  204  A    between atoms: _504  and  _506
REMARK  205  A    between atoms: _506  and  _507
REMARK  206  A    between atoms: _506  and  _509
REMARK  207  A    between atoms: _509  and  _510
REMARK  208  A    between atoms: _515  and  _516
REMARK  209  A    between atoms: _518  and  _520
REMARK  210  A    between atoms: _520  and  _521
REMARK  211  A    between atoms: _520  and  _523
REMARK  212  A    between atoms: _523  and  _524
REMARK  213  A    between atoms: _529  and  _530
REMARK  214  A    between atoms: _532  and  _534
REMARK  215  A    between atoms: _534  and  _535
REMARK  216  A    between atoms: _538  and  _540
REMARK  217  A    between atoms: _540  and  _541
REMARK  218  A    between atoms: _540  and  _543
REMARK  219  A    between atoms: _543  and  _544
REMARK  220  A    between atoms: _550  and  _552
REMARK  221  A    between atoms: _552  and  _553
REMARK  222  A    between atoms: _552  and  _555
REMARK  223  A    between atoms: _555  and  _556
REMARK  224  A    between atoms: _558  and  _560
REMARK  225  A    between atoms: _560  and  _561
REMARK  226  A    between atoms: _560  and  _563
REMARK  227  A    between atoms: _563  and  _564
REMARK  228  A    between atoms: _567  and  _569
REMARK  229  A    between atoms: _569  and  _570
REMARK  230  A    between atoms: _569  and  _572
REMARK  231  A    between atoms: _572  and  _573
REMARK  232  A    between atoms: _576  and  _578
REMARK  233  A    between atoms: _578  and  _579
REMARK  234  A    between atoms: _578  and  _581
REMARK  235  A    between atoms: _581  and  _582
REMARK  236  A    between atoms: _592  and  _594
REMARK  237  A    between atoms: _594  and  _595
REMARK  238  A    between atoms: _594  and  _597
REMARK  239  A    between atoms: _597  and  _598
REMARK  240  A    between atoms: _598  and  _599
REMARK  241  A    between atoms: _601  and  _603
REMARK  242  A    between atoms: _603  and  _604
REMARK  243  A    between atoms: _603  and  _606
REMARK  244  A    between atoms: _606  and  _607
REMARK  245  A    between atoms: _610  and  _612
REMARK  246  A    between atoms: _612  and  _613
REMARK  247  A    between atoms: _612  and  _615
REMARK  248  A    between atoms: _615  and  _616
REMARK  249  A    between atoms: _619  and  _621
REMARK  250  A    between atoms: _621  and  _622
REMARK  251  A    between atoms: _625  and  _627
REMARK  252  A    between atoms: _627  and  _628
REMARK  253  A    between atoms: _627  and  _630
REMARK  254  A    between atoms: _630  and  _631
REMARK  255  A    between atoms: _634  and  _636
REMARK  256  A    between atoms: _636  and  _637
REMARK  257  A    between atoms: _639  and  _641
REMARK  258  A    between atoms: _641  and  _642
REMARK  259  A    between atoms: _641  and  _644
REMARK  260  A    between atoms: _644  and  _645
REMARK  261  A    between atoms: _650  and  _652
REMARK  262  A    between atoms: _652  and  _653
REMARK  263  A    between atoms: _652  and  _655
REMARK  264  A    between atoms: _655  and  _656
REMARK                            x       y       z     vdW  Elec       q    Type
REMARK                         _______ _______ _______ _____ _____    ______ ____
ROOT
ATOM      1  O   HOH     1      12.047 116.272  19.408  0.00  0.00    +0.000 OA
ENDROOT
TORSDOF 0
REMARK  Name = ../refined-set-2016/4c1t/4c1t_pocket.pdb
REMARK  264 active torsions:
REMARK  status: ('A' for Active; 'I' for Inactive)
REMARK    1  A    between atoms: _1  and  _3
REMARK    2  A    between atoms: _3  and  _4
REMARK    3  A    between atoms: _3  and  _6
REMARK    4  A    between atoms: _6  and  _7
REMARK    5  A    between atoms: _12  and  _14
REMARK    6  A    between atoms: _14  and  _15
REMARK    7  A    between atoms: _14  and  _17
REMARK    8  A    between atoms: _17  and  _18
REMARK    9  A    between atoms: _23  and  _25
REMARK   10  A    between atoms: _25  and  _26
REMARK   11  A    between atoms: _29  and  _31
REMARK   12  A    between atoms: _31  and  _32
REMARK   13  A    between atoms: _31  and  _34
REMARK   14  A    between atoms: _34  and  _35
REMARK   15  A    between atoms: _37  and  _39
REMARK   16  A    between atoms: _39  and  _40
REMARK   17  A    between atoms: _43  and  _45
REMARK   18  A    between atoms: _45  and  _46
REMARK   19  A    between atoms: _48  and  _50
REMARK   20  A    between atoms: _50  and  _51
REMARK   21  A    between atoms: _50  and  _53
REMARK   22  A    between atoms: _53  and  _54
REMARK   23  A    between atoms: _54  and  _55
REMARK   24  A    between atoms: _58  and  _60
REMARK   25  A    between atoms: _60  and  _61
REMARK   26  A    between atoms: _63  and  _65
REMARK   27  A    between atoms: _65  and  _66
REMARK   28  A    between atoms: _65  and  _68
REMARK   29  A    between atoms: _68  and  _69
REMARK   30  A    between atoms: _69  and  _70
REMARK   31  A    between atoms: _70  and  _71
REMARK   32  A    between atoms: _80  and  _82
REMARK   33  A    between atoms: _82  and  _83
REMARK   34  A    between atoms: _82  and  _85
REMARK   35  A    between atoms: _85  and  _86
REMARK   36  A    between atoms: _86  and  _87
REMARK   37  A    between atoms: _92  and  _94
REMARK   38  A    between atoms: _94  and  _95
REMARK   39  A    between atoms: _94  and  _97
REMARK   40  A    between atoms: _97  and  _98
REMARK   41  A    between atoms: _103  and  _104
REMARK   42  A    between atoms: _106  and  _108
REMARK   43  A    between atoms: _108  and  _109
REMARK   44  A    between atoms: _108  and  _111
REMARK   45  A    between atoms: _111  and  _112
REMARK   46  A    between atoms: _122  and  _124
REMARK   47  A    between atoms: _124  and  _125
REMARK   48  A    between atoms: _124  and  _127
REMARK   49  A    between atoms: _127  and  _128
REMARK   50  A    between atoms: _131  and  _133
REMARK   51  A    between atoms: _133  and  _134
REMARK   52  A    between atoms: _133  and  _136
REMARK   53  A    between atoms: _136  and  _137
REMARK   54  A    between atoms: _137  and  _138
REMARK   55  A    between atoms: _143  and  _145
REMARK   56  A    between atoms: _145  and  _146
REMARK   57  A    between atoms: _145  and  _148
REMARK   58  A    between atoms: _148  and  _149
REMARK   59  A    between atoms: _154  and  _156
REMARK   60  A    between atoms: _156  and  _157
REMARK   61  A    between atoms: _156  and  _159
REMARK   62  A    between atoms: _159  and  _160
REMARK   63  A    between atoms: _160  and  _161
REMARK   64  A    between atoms: _164  and  _166
REMARK   65  A    between atoms: _166  and  _167
REMARK   66  A    between atoms: _166  and  _169
REMARK   67  A    between atoms: _169  and  _170
REMARK   68  A    between atoms: _173  and  _175
REMARK   69  A    between atoms: _175  and  _176
REMARK   70  A    between atoms: _175  and  _178
REMARK   71  A    between atoms: _178  and  _179
REMARK   72  A    between atoms: _185  and  _187
REMARK   73  A    between atoms: _187  and  _188
REMARK   74  A    between atoms: _191  and  _193
REMARK   75  A    between atoms: _193  and  _194
REMARK   76  A    between atoms: _196  and  _198
REMARK   77  A    between atoms: _198  and  _199
REMARK   78  A    between atoms: _198  and  _201
REMARK   79  A    between atoms: _201  and  _202
REMARK   80  A    between atoms: _202  and  _203
REMARK   81  A    between atoms: _203  and  _204
REMARK   82  A    between atoms: _204  and  _205
REMARK   83  A    between atoms: _209  and  _211
REMARK   84  A    between atoms: _211  and  _212
REMARK   85  A    between atoms: _211  and  _214
REMARK   86  A    between atoms: _214  and  _215
REMARK   87  A    between atoms: _218  and  _220
REMARK   88  A    between atoms: _220  and  _221
REMARK   89  A    between atoms: _220  and  _223
REMARK   90  A    between atoms: _223  and  _224
REMARK   91  A    between atoms: _224  and  _225
REMARK   92  A    between atoms: _230  and  _232
REMARK   93  A    between atoms: _232  and  _233
REMARK   94  A    between atoms: _232  and  _235
REMARK   95  A    between atoms: _235  and  _236
REMARK   96  A    between atoms: _236  and  _237
REMARK   97  A    between atoms: _239  and  _241
REMARK   98  A    between atoms: _241  and  _242
REMARK   99  A    between atoms: _241  and  _244
REMARK  100  A    between atoms: _244  and  _245
REMARK  101  A    between atoms: _247  and  _249
REMARK  102  A    between atoms: _249  and  _250
REMARK  103  A    between atoms: _249  and  _252
REMARK  104  A    between atoms: _252  and  _253
REMARK  105  A    between atoms: _256  and  _258
REMARK  106  A    between atoms: _258  and  _259
REMARK  107  A    between atoms: _261  and  _263
REMARK  108  A    between atoms: _263  and  _264
REMARK  109  A    between atoms: _263  and  _266
REMARK  110  A    between atoms: _266  and  _267
REMARK  111  A    between atoms: _267  and  _268
REMARK  112  A    between atoms: _268  and  _269
REMARK  113  A    between atoms: _269  and  _270
REMARK  114  A    between atoms: _274  and  _276
REMARK  115  A    between atoms: _276  and  _277
REMARK  116  A    between atoms: _276  and  _279
REMARK  117  A    between atoms: _279  and  _280
REMARK  118  A    between atoms: _282  and  _284
REMARK  119  A    between atoms: _284  and  _285
REMARK  120  A    between atoms: _284  and  _287
REMARK  121  A    between atoms: _287  and  _288
REMARK  122  A    between atoms: _288  and  _289
REMARK  123  A    between atoms: _292  and  _294
REMARK  124  A    between atoms: _294  and  _295
REMARK  125  A    between atoms: _294  and  _297
REMARK  126  A    between atoms: _297  and  _298
REMARK  127  A    between atoms: _301  and  _303
REMARK  128  A    between atoms: _303  and  _304
REMARK  129  A    between atoms: _307  and  _309
REMARK  130  A    between atoms: _309  and  _310
REMARK  131  A    between atoms: _309  and  _312
REMARK  132  A    between atoms: _312  and  _313
REMARK  133  A    between atoms: _324  and  _325
REMARK  134  A    between atoms: _330  and  _332
REMARK  135  A    between atoms: _332  and  _333
REMARK  136  A    between atoms: _336  and  _338
REMARK  137  A    between atoms: _338  and  _339
REMARK  138  A    between atoms: _338  and  _341
REMARK  139  A    between atoms: _341  and  _342
REMARK  140  A    between atoms: _347  and  _349
REMARK  141  A    between atoms: _349  and  _350
REMARK  142  A    between atoms: _349  and  _352
REMARK  143  A    between atoms: _352  and  _353
REMARK  144  A    between atoms: _358  and  _359
REMARK  145  A    between atoms: _361  and  _363
REMARK  146  A    between atoms: _363  and  _364
REMARK  147  A    between atoms: _367  and  _369
REMARK  148  A    between atoms: _369  and  _370
REMARK  149  A    between atoms: _369  and  _372
REMARK  150  A    between atoms: _372  and  _373
REMARK  151  A    between atoms: _373  and  _374
REMARK  152  A    between atoms: _379  and  _381
REMARK  153  A    between atoms: _381  and  _382
REMARK  154  A    between atoms: _381  and  _384
REMARK  155  A    between atoms: _384  and  _385
REMARK  156  A    between atoms: _385  and  _386
REMARK  157  A    between atoms: _391  and  _393
REMARK  158  A    between atoms: _393  and  _394
REMARK  159  A    between atoms: _393  and  _396
REMARK  160  A    between atoms: _396  and  _397
REMARK  161  A    between atoms: _397  and  _398
REMARK  162  A    between atoms: _400  and  _402
REMARK  163  A    between atoms: _402  and  _403
REMARK  164  A    between atoms: _405  and  _407
REMARK  165  A    between atoms: _407  and  _408
REMARK  166  A    between atoms: _411  and  _413
REMARK  167  A    between atoms: _413  and  _414
REMARK  168  A    between atoms: _413  and  _416
REMARK  169  A    between atoms: _416  and  _417
REMARK  170  A    between atoms: _427  and  _429
REMARK  171  A    between atoms: _429  and  _430
REMARK  172  A    between atoms: _429  and  _432
REMARK  173  A    between atoms: _432  and  _433
REMARK  174  A    between atoms: _433  and  _434
REMARK  175  A    between atoms: _437  and  _439
REMARK  176  A    between atoms: _439  and  _440
REMARK  177  A    between atoms: _442  and  _444
REMARK  178  A    between atoms: _444  and  _445
REMARK  179  A    between atoms: _444  and  _447
REMARK  180  A    between atoms: _450  and  _452
REMARK  181  A    between atoms: _452  and  _453
REMARK  182  A    between atoms: _452  and  _455
REMARK  183  A    between atoms: _455  and  _456
REMARK  184  A    between atoms: _459  and  _461
REMARK  185  A    between atoms: _461  and  _462
REMARK  186  A    between atoms: _461  and  _464
REMARK  187  A    between atoms: _464  and  _465
REMARK  188  A    between atoms: _468  and  _470
REMARK  189  A    between atoms: _470  and  _471
REMARK  190  A    between atoms: _470  and  _473
REMARK  191  A    between atoms: _473  and  _474
REMARK  192  A    between atoms: _474  and  _475
REMARK  193  A    between atoms: _477  and  _479
REMARK  194  A    between atoms: _479  and  _480
REMARK  195  A    between atoms: _482  and  _484
REMARK  196  A    between atoms: _484  and  _485
REMARK  197  A    between atoms: _487  and  _489
REMARK  198  A    between atoms: _489  and  _490
REMARK  199  A    between atoms: _489  and  _492
REMARK  200  A    between atoms: _495  and  _497
REMARK  201  A    between atoms: _497  and  _498
REMARK  202  A    between atoms: _497  and  _500
REMARK  203  A    between atoms: _500  and  _501
REMARK  204  A    between atoms: _504  and  _506
REMARK  205  A    between atoms: _506  and  _507
REMARK  206  A    between atoms: _506  and  _509
REMARK  207  A    between atoms: _509  and  _510
REMARK  208  A    between atoms: _515  and  _516
REMARK  209  A    between atoms: _518  and  _520
REMARK  210  A    between atoms: _520  and  _521
REMARK  211  A    between atoms: _520  and  _523
REMARK  212  A    between atoms: _523  and  _524
REMARK  213  A    between atoms: _529  and  _530
REMARK  214  A    between atoms: _532  and  _534
REMARK  215  A    between atoms: _534  and  _535
REMARK  216  A    between atoms: _538  and  _540
REMARK  217  A    between atoms: _540  and  _541
REMARK  218  A    between atoms: _540  and  _543
REMARK  219  A    between atoms: _543  and  _544
REMARK  220  A    between atoms: _550  and  _552
REMARK  221  A    between atoms: _552  and  _553
REMARK  222  A    between atoms: _552  and  _555
REMARK  223  A    between atoms: _555  and  _556
REMARK  224  A    between atoms: _558  and  _560
REMARK  225  A    between atoms: _560  and  _561
REMARK  226  A    between atoms: _560  and  _563
REMARK  227  A    between atoms: _563  and  _564
REMARK  228  A    between atoms: _567  and  _569
REMARK  229  A    between atoms: _569  and  _570
REMARK  230  A    between atoms: _569  and  _572
REMARK  231  A    between atoms: _572  and  _573
REMARK  232  A    between atoms: _576  and  _578
REMARK  233  A    between atoms: _578  and  _579
REMARK  234  A    between atoms: _578  and  _581
REMARK  235  A    between atoms: _581  and  _582
REMARK  236  A    between atoms: _592  and  _594
REMARK  237  A    between atoms: _594  and  _595
REMARK  238  A    between atoms: _594  and  _597
REMARK  239  A    between atoms: _597  and  _598
REMARK  240  A    between atoms: _598  and  _599
REMARK  241  A    between atoms: _601  and  _603
REMARK  242  A    between atoms: _603  and  _604
REMARK  243  A    between atoms: _603  and  _606
REMARK  244  A    between atoms: _606  and  _607
REMARK  245  A    between atoms: _610  and  _612
REMARK  246  A    between atoms: _612  and  _613
REMARK  247  A    between atoms: _612  and  _615
REMARK  248  A    between atoms: _615  and  _616
REMARK  249  A    between atoms: _619  and  _621
REMARK  250  A    between atoms: _621  and  _622
REMARK  251  A    between atoms: _625  and  _627
REMARK  252  A    between atoms: _627  and  _628
REMARK  253  A    between atoms: _627  and  _630
REMARK  254  A    between atoms: _630  and  _631
REMARK  255  A    between atoms: _634  and  _636
REMARK  256  A    between atoms: _636  and  _637
REMARK  257  A    between atoms: _639  and  _641
REMARK  258  A    between atoms: _641  and  _642
REMARK  259  A    between atoms: _641  and  _644
REMARK  260  A    between atoms: _644  and  _645
REMARK  261  A    between atoms: _650  and  _652
REMARK  262  A    between atoms: _652  and  _653
REMARK  263  A    between atoms: _652  and  _655
REMARK  264  A    between atoms: _655  and  _656
REMARK                            x       y       z     vdW  Elec       q    Type
REMARK                         _______ _______ _______ _____ _____    ______ ____
ROOT
ATOM      1  O   HOH     1      18.515 110.879  24.182  0.00  0.00    +0.000 OA
ENDROOT
TORSDOF 0
REMARK  Name = ../refined-set-2016/4c1t/4c1t_pocket.pdb
REMARK  264 active torsions:
REMARK  status: ('A' for Active; 'I' for Inactive)
REMARK    1  A    between atoms: _1  and  _3
REMARK    2  A    between atoms: _3  and  _4
REMARK    3  A    between atoms: _3  and  _6
REMARK    4  A    between atoms: _6  and  _7
REMARK    5  A    between atoms: _12  and  _14
REMARK    6  A    between atoms: _14  and  _15
REMARK    7  A    between atoms: _14  and  _17
REMARK    8  A    between atoms: _17  and  _18
REMARK    9  A    between atoms: _23  and  _25
REMARK   10  A    between atoms: _25  and  _26
REMARK   11  A    between atoms: _29  and  _31
REMARK   12  A    between atoms: _31  and  _32
REMARK   13  A    between atoms: _31  and  _34
REMARK   14  A    between atoms: _34  and  _35
REMARK   15  A    between atoms: _37  and  _39
REMARK   16  A    between atoms: _39  and  _40
REMARK   17  A    between atoms: _43  and  _45
REMARK   18  A    between atoms: _45  and  _46
REMARK   19  A    between atoms: _48  and  _50
REMARK   20  A    between atoms: _50  and  _51
REMARK   21  A    between atoms: _50  and  _53
REMARK   22  A    between atoms: _53  and  _54
REMARK   23  A    between atoms: _54  and  _55
REMARK   24  A    between atoms: _58  and  _60
REMARK   25  A    between atoms: _60  and  _61
REMARK   26  A    between atoms: _63  and  _65
REMARK   27  A    between atoms: _65  and  _66
REMARK   28  A    between atoms: _65  and  _68
REMARK   29  A    between atoms: _68  and  _69
REMARK   30  A    between atoms: _69  and  _70
REMARK   31  A    between atoms: _70  and  _71
REMARK   32  A    between atoms: _80  and  _82
REMARK   33  A    between atoms: _82  and  _83
REMARK   34  A    between atoms: _82  and  _85
REMARK   35  A    between atoms: _85  and  _86
REMARK   36  A    between atoms: _86  and  _87
REMARK   37  A    between atoms: _92  and  _94
REMARK   38  A    between atoms: _94  and  _95
REMARK   39  A    between atoms: _94  and  _97
REMARK   40  A    between atoms: _97  and  _98
REMARK   41  A    between atoms: _103  and  _104
REMARK   42  A    between atoms: _106  and  _108
REMARK   43  A    between atoms: _108  and  _109
REMARK   44  A    between atoms: _108  and  _111
REMARK   45  A    between atoms: _111  and  _112
REMARK   46  A    between atoms: _122  and  _124
REMARK   47  A    between atoms: _124  and  _125
REMARK   48  A    between atoms: _124  and  _127
REMARK   49  A    between atoms: _127  and  _128
REMARK   50  A    between atoms: _131  and  _133
REMARK   51  A    between atoms: _133  and  _134
REMARK   52  A    between atoms: _133  and  _136
REMARK   53  A    between atoms: _136  and  _137
REMARK   54  A    between atoms: _137  and  _138
REMARK   55  A    between atoms: _143  and  _145
REMARK   56  A    between atoms: _145  and  _146
REMARK   57  A    between atoms: _145  and  _148
REMARK   58  A    between atoms: _148  and  _149
REMARK   59  A    between atoms: _154  and  _156
REMARK   60  A    between atoms: _156  and  _157
REMARK   61  A    between atoms: _156  and  _159
REMARK   62  A    between atoms: _159  and  _160
REMARK   63  A    between atoms: _160  and  _161
REMARK   64  A    between atoms: _164  and  _166
REMARK   65  A    between atoms: _166  and  _167
REMARK   66  A    between atoms: _166  and  _169
REMARK   67  A    between atoms: _169  and  _170
REMARK   68  A    between atoms: _173  and  _175
REMARK   69  A    between atoms: _175  and  _176
REMARK   70  A    between atoms: _175  and  _178
REMARK   71  A    between atoms: _178  and  _179
REMARK   72  A    between atoms: _185  and  _187
REMARK   73  A    between atoms: _187  and  _188
REMARK   74  A    between atoms: _191  and  _193
REMARK   75  A    between atoms: _193  and  _194
REMARK   76  A    between atoms: _196  and  _198
REMARK   77  A    between atoms: _198  and  _199
REMARK   78  A    between atoms: _198  and  _201
REMARK   79  A    between atoms: _201  and  _202
REMARK   80  A    between atoms: _202  and  _203
REMARK   81  A    between atoms: _203  and  _204
REMARK   82  A    between atoms: _204  and  _205
REMARK   83  A    between atoms: _209  and  _211
REMARK   84  A    between atoms: _211  and  _212
REMARK   85  A    between atoms: _211  and  _214
REMARK   86  A    between atoms: _214  and  _215
REMARK   87  A    between atoms: _218  and  _220
REMARK   88  A    between atoms: _220  and  _221
REMARK   89  A    between atoms: _220  and  _223
REMARK   90  A    between atoms: _223  and  _224
REMARK   91  A    between atoms: _224  and  _225
REMARK   92  A    between atoms: _230  and  _232
REMARK   93  A    between atoms: _232  and  _233
REMARK   94  A    between atoms: _232  and  _235
REMARK   95  A    between atoms: _235  and  _236
REMARK   96  A    between atoms: _236  and  _237
REMARK   97  A    between atoms: _239  and  _241
REMARK   98  A    between atoms: _241  and  _242
REMARK   99  A    between atoms: _241  and  _244
REMARK  100  A    between atoms: _244  and  _245
REMARK  101  A    between atoms: _247  and  _249
REMARK  102  A    between atoms: _249  and  _250
REMARK  103  A    between atoms: _249  and  _252
REMARK  104  A    between atoms: _252  and  _253
REMARK  105  A    between atoms: _256  and  _258
REMARK  106  A    between atoms: _258  and  _259
REMARK  107  A    between atoms: _261  and  _263
REMARK  108  A    between atoms: _263  and  _264
REMARK  109  A    between atoms: _263  and  _266
REMARK  110  A    between atoms: _266  and  _267
REMARK  111  A    between atoms: _267  and  _268
REMARK  112  A    between atoms: _268  and  _269
REMARK  113  A    between atoms: _269  and  _270
REMARK  114  A    between atoms: _274  and  _276
REMARK  115  A    between atoms: _276  and  _277
REMARK  116  A    between atoms: _276  and  _279
REMARK  117  A    between atoms: _279  and  _280
REMARK  118  A    between atoms: _282  and  _284
REMARK  119  A    between atoms: _284  and  _285
REMARK  120  A    between atoms: _284  and  _287
REMARK  121  A    between atoms: _287  and  _288
REMARK  122  A    between atoms: _288  and  _289
REMARK  123  A    between atoms: _292  and  _294
REMARK  124  A    between atoms: _294  and  _295
REMARK  125  A    between atoms: _294  and  _297
REMARK  126  A    between atoms: _297  and  _298
REMARK  127  A    between atoms: _301  and  _303
REMARK  128  A    between atoms: _303  and  _304
REMARK  129  A    between atoms: _307  and  _309
REMARK  130  A    between atoms: _309  and  _310
REMARK  131  A    between atoms: _309  and  _312
REMARK  132  A    between atoms: _312  and  _313
REMARK  133  A    between atoms: _324  and  _325
REMARK  134  A    between atoms: _330  and  _332
REMARK  135  A    between atoms: _332  and  _333
REMARK  136  A    between atoms: _336  and  _338
REMARK  137  A    between atoms: _338  and  _339
REMARK  138  A    between atoms: _338  and  _341
REMARK  139  A    between atoms: _341  and  _342
REMARK  140  A    between atoms: _347  and  _349
REMARK  141  A    between atoms: _349  and  _350
REMARK  142  A    between atoms: _349  and  _352
REMARK  143  A    between atoms: _352  and  _353
REMARK  144  A    between atoms: _358  and  _359
REMARK  145  A    between atoms: _361  and  _363
REMARK  146  A    between atoms: _363  and  _364
REMARK  147  A    between atoms: _367  and  _369
REMARK  148  A    between atoms: _369  and  _370
REMARK  149  A    between atoms: _369  and  _372
REMARK  150  A    between atoms: _372  and  _373
REMARK  151  A    between atoms: _373  and  _374
REMARK  152  A    between atoms: _379  and  _381
REMARK  153  A    between atoms: _381  and  _382
REMARK  154  A    between atoms: _381  and  _384
REMARK  155  A    between atoms: _384  and  _385
REMARK  156  A    between atoms: _385  and  _386
REMARK  157  A    between atoms: _391  and  _393
REMARK  158  A    between atoms: _393  and  _394
REMARK  159  A    between atoms: _393  and  _396
REMARK  160  A    between atoms: _396  and  _397
REMARK  161  A    between atoms: _397  and  _398
REMARK  162  A    between atoms: _400  and  _402
REMARK  163  A    between atoms: _402  and  _403
REMARK  164  A    between atoms: _405  and  _407
REMARK  165  A    between atoms: _407  and  _408
REMARK  166  A    between atoms: _411  and  _413
REMARK  167  A    between atoms: _413  and  _414
REMARK  168  A    between atoms: _413  and  _416
REMARK  169  A    between atoms: _416  and  _417
REMARK  170  A    between atoms: _427  and  _429
REMARK  171  A    between atoms: _429  and  _430
REMARK  172  A    between atoms: _429  and  _432
REMARK  173  A    between atoms: _432  and  _433
REMARK  174  A    between atoms: _433  and  _434
REMARK  175  A    between atoms: _437  and  _439
REMARK  176  A    between atoms: _439  and  _440
REMARK  177  A    between atoms: _442  and  _444
REMARK  178  A    between atoms: _444  and  _445
REMARK  179  A    between atoms: _444  and  _447
REMARK  180  A    between atoms: _450  and  _452
REMARK  181  A    between atoms: _452  and  _453
REMARK  182  A    between atoms: _452  and  _455
REMARK  183  A    between atoms: _455  and  _456
REMARK  184  A    between atoms: _459  and  _461
REMARK  185  A    between atoms: _461  and  _462
REMARK  186  A    between atoms: _461  and  _464
REMARK  187  A    between atoms: _464  and  _465
REMARK  188  A    between atoms: _468  and  _470
REMARK  189  A    between atoms: _470  and  _471
REMARK  190  A    between atoms: _470  and  _473
REMARK  191  A    between atoms: _473  and  _474
REMARK  192  A    between atoms: _474  and  _475
REMARK  193  A    between atoms: _477  and  _479
REMARK  194  A    between atoms: _479  and  _480
REMARK  195  A    between atoms: _482  and  _484
REMARK  196  A    between atoms: _484  and  _485
REMARK  197  A    between atoms: _487  and  _489
REMARK  198  A    between atoms: _489  and  _490
REMARK  199  A    between atoms: _489  and  _492
REMARK  200  A    between atoms: _495  and  _497
REMARK  201  A    between atoms: _497  and  _498
REMARK  202  A    between atoms: _497  and  _500
REMARK  203  A    between atoms: _500  and  _501
REMARK  204  A    between atoms: _504  and  _506
REMARK  205  A    between atoms: _506  and  _507
REMARK  206  A    between atoms: _506  and  _509
REMARK  207  A    between atoms: _509  and  _510
REMARK  208  A    between atoms: _515  and  _516
REMARK  209  A    between atoms: _518  and  _520
REMARK  210  A    between atoms: _520  and  _521
REMARK  211  A    between atoms: _520  and  _523
REMARK  212  A    between atoms: _523  and  _524
REMARK  213  A    between atoms: _529  and  _530
REMARK  214  A    between atoms: _532  and  _534
REMARK  215  A    between atoms: _534  and  _535
REMARK  216  A    between atoms: _538  and  _540
REMARK  217  A    between atoms: _540  and  _541
REMARK  218  A    between atoms: _540  and  _543
REMARK  219  A    between atoms: _543  and  _544
REMARK  220  A    between atoms: _550  and  _552
REMARK  221  A    between atoms: _552  and  _553
REMARK  222  A    between atoms: _552  and  _555
REMARK  223  A    between atoms: _555  and  _556
REMARK  224  A    between atoms: _558  and  _560
REMARK  225  A    between atoms: _560  and  _561
REMARK  226  A    between atoms: _560  and  _563
REMARK  227  A    between atoms: _563  and  _564
REMARK  228  A    between atoms: _567  and  _569
REMARK  229  A    between atoms: _569  and  _570
REMARK  230  A    between atoms: _569  and  _572
REMARK  231  A    between atoms: _572  and  _573
REMARK  232  A    between atoms: _576  and  _578
REMARK  233  A    between atoms: _578  and  _579
REMARK  234  A    between atoms: _578  and  _581
REMARK  235  A    between atoms: _581  and  _582
REMARK  236  A    between atoms: _592  and  _594
REMARK  237  A    between atoms: _594  and  _595
REMARK  238  A    between atoms: _594  and  _597
REMARK  239  A    between atoms: _597  and  _598
REMARK  240  A    between atoms: _598  and  _599
REMARK  241  A    between atoms: _601  and  _603
REMARK  242  A    between atoms: _603  and  _604
REMARK  243  A    between atoms: _603  and  _606
REMARK  244  A    between atoms: _606  and  _607
REMARK  245  A    between atoms: _610  and  _612
REMARK  246  A    between atoms: _612  and  _613
REMARK  247  A    between atoms: _612  and  _615
REMARK  248  A    between atoms: _615  and  _616
REMARK  249  A    between atoms: _619  and  _621
REMARK  250  A    between atoms: _621  and  _622
REMARK  251  A    between atoms: _625  and  _627
REMARK  252  A    between atoms: _627  and  _628
REMARK  253  A    between atoms: _627  and  _630
REMARK  254  A    between atoms: _630  and  _631
REMARK  255  A    between atoms: _634  and  _636
REMARK  256  A    between atoms: _636  and  _637
REMARK  257  A    between atoms: _639  and  _641
REMARK  258  A    between atoms: _641  and  _642
REMARK  259  A    between atoms: _641  and  _644
REMARK  260  A    between atoms: _644  and  _645
REMARK  261  A    between atoms: _650  and  _652
REMARK  262  A    between atoms: _652  and  _653
REMARK  263  A    between atoms: _652  and  _655
REMARK  264  A    between atoms: _655  and  _656
REMARK                            x       y       z     vdW  Elec       q    Type
REMARK                         _______ _______ _______ _____ _____    ______ ____
ROOT
ATOM      1  O   HOH     1      27.410 108.243  19.717  0.00  0.00    +0.000 OA
ENDROOT
TORSDOF 0
REMARK  Name = ../refined-set-2016/4c1t/4c1t_pocket.pdb
REMARK  264 active torsions:
REMARK  status: ('A' for Active; 'I' for Inactive)
REMARK    1  A    between atoms: _1  and  _3
REMARK    2  A    between atoms: _3  and  _4
REMARK    3  A    between atoms: _3  and  _6
REMARK    4  A    between atoms: _6  and  _7
REMARK    5  A    between atoms: _12  and  _14
REMARK    6  A    between atoms: _14  and  _15
REMARK    7  A    between atoms: _14  and  _17
REMARK    8  A    between atoms: _17  and  _18
REMARK    9  A    between atoms: _23  and  _25
REMARK   10  A    between atoms: _25  and  _26
REMARK   11  A    between atoms: _29  and  _31
REMARK   12  A    between atoms: _31  and  _32
REMARK   13  A    between atoms: _31  and  _34
REMARK   14  A    between atoms: _34  and  _35
REMARK   15  A    between atoms: _37  and  _39
REMARK   16  A    between atoms: _39  and  _40
REMARK   17  A    between atoms: _43  and  _45
REMARK   18  A    between atoms: _45  and  _46
REMARK   19  A    between atoms: _48  and  _50
REMARK   20  A    between atoms: _50  and  _51
REMARK   21  A    between atoms: _50  and  _53
REMARK   22  A    between atoms: _53  and  _54
REMARK   23  A    between atoms: _54  and  _55
REMARK   24  A    between atoms: _58  and  _60
REMARK   25  A    between atoms: _60  and  _61
REMARK   26  A    between atoms: _63  and  _65
REMARK   27  A    between atoms: _65  and  _66
REMARK   28  A    between atoms: _65  and  _68
REMARK   29  A    between atoms: _68  and  _69
REMARK   30  A    between atoms: _69  and  _70
REMARK   31  A    between atoms: _70  and  _71
REMARK   32  A    between atoms: _80  and  _82
REMARK   33  A    between atoms: _82  and  _83
REMARK   34  A    between atoms: _82  and  _85
REMARK   35  A    between atoms: _85  and  _86
REMARK   36  A    between atoms: _86  and  _87
REMARK   37  A    between atoms: _92  and  _94
REMARK   38  A    between atoms: _94  and  _95
REMARK   39  A    between atoms: _94  and  _97
REMARK   40  A    between atoms: _97  and  _98
REMARK   41  A    between atoms: _103  and  _104
REMARK   42  A    between atoms: _106  and  _108
REMARK   43  A    between atoms: _108  and  _109
REMARK   44  A    between atoms: _108  and  _111
REMARK   45  A    between atoms: _111  and  _112
REMARK   46  A    between atoms: _122  and  _124
REMARK   47  A    between atoms: _124  and  _125
REMARK   48  A    between atoms: _124  and  _127
REMARK   49  A    between atoms: _127  and  _128
REMARK   50  A    between atoms: _131  and  _133
REMARK   51  A    between atoms: _133  and  _134
REMARK   52  A    between atoms: _133  and  _136
REMARK   53  A    between atoms: _136  and  _137
REMARK   54  A    between atoms: _137  and  _138
REMARK   55  A    between atoms: _143  and  _145
REMARK   56  A    between atoms: _145  and  _146
REMARK   57  A    between atoms: _145  and  _148
REMARK   58  A    between atoms: _148  and  _149
REMARK   59  A    between atoms: _154  and  _156
REMARK   60  A    between atoms: _156  and  _157
REMARK   61  A    between atoms: _156  and  _159
REMARK   62  A    between atoms: _159  and  _160
REMARK   63  A    between atoms: _160  and  _161
REMARK   64  A    between atoms: _164  and  _166
REMARK   65  A    between atoms: _166  and  _167
REMARK   66  A    between atoms: _166  and  _169
REMARK   67  A    between atoms: _169  and  _170
REMARK   68  A    between atoms: _173  and  _175
REMARK   69  A    between atoms: _175  and  _176
REMARK   70  A    between atoms: _175  and  _178
REMARK   71  A    between atoms: _178  and  _179
REMARK   72  A    between atoms: _185  and  _187
REMARK   73  A    between atoms: _187  and  _188
REMARK   74  A    between atoms: _191  and  _193
REMARK   75  A    between atoms: _193  and  _194
REMARK   76  A    between atoms: _196  and  _198
REMARK   77  A    between atoms: _198  and  _199
REMARK   78  A    between atoms: _198  and  _201
REMARK   79  A    between atoms: _201  and  _202
REMARK   80  A    between atoms: _202  and  _203
REMARK   81  A    between atoms: _203  and  _204
REMARK   82  A    between atoms: _204  and  _205
REMARK   83  A    between atoms: _209  and  _211
REMARK   84  A    between atoms: _211  and  _212
REMARK   85  A    between atoms: _211  and  _214
REMARK   86  A    between atoms: _214  and  _215
REMARK   87  A    between atoms: _218  and  _220
REMARK   88  A    between atoms: _220  and  _221
REMARK   89  A    between atoms: _220  and  _223
REMARK   90  A    between atoms: _223  and  _224
REMARK   91  A    between atoms: _224  and  _225
REMARK   92  A    between atoms: _230  and  _232
REMARK   93  A    between atoms: _232  and  _233
REMARK   94  A    between atoms: _232  and  _235
REMARK   95  A    between atoms: _235  and  _236
REMARK   96  A    between atoms: _236  and  _237
REMARK   97  A    between atoms: _239  and  _241
REMARK   98  A    between atoms: _241  and  _242
REMARK   99  A    between atoms: _241  and  _244
REMARK  100  A    between atoms: _244  and  _245
REMARK  101  A    between atoms: _247  and  _249
REMARK  102  A    between atoms: _249  and  _250
REMARK  103  A    between atoms: _249  and  _252
REMARK  104  A    between atoms: _252  and  _253
REMARK  105  A    between atoms: _256  and  _258
REMARK  106  A    between atoms: _258  and  _259
REMARK  107  A    between atoms: _261  and  _263
REMARK  108  A    between atoms: _263  and  _264
REMARK  109  A    between atoms: _263  and  _266
REMARK  110  A    between atoms: _266  and  _267
REMARK  111  A    between atoms: _267  and  _268
REMARK  112  A    between atoms: _268  and  _269
REMARK  113  A    between atoms: _269  and  _270
REMARK  114  A    between atoms: _274  and  _276
REMARK  115  A    between atoms: _276  and  _277
REMARK  116  A    between atoms: _276  and  _279
REMARK  117  A    between atoms: _279  and  _280
REMARK  118  A    between atoms: _282  and  _284
REMARK  119  A    between atoms: _284  and  _285
REMARK  120  A    between atoms: _284  and  _287
REMARK  121  A    between atoms: _287  and  _288
REMARK  122  A    between atoms: _288  and  _289
REMARK  123  A    between atoms: _292  and  _294
REMARK  124  A    between atoms: _294  and  _295
REMARK  125  A    between atoms: _294  and  _297
REMARK  126  A    between atoms: _297  and  _298
REMARK  127  A    between atoms: _301  and  _303
REMARK  128  A    between atoms: _303  and  _304
REMARK  129  A    between atoms: _307  and  _309
REMARK  130  A    between atoms: _309  and  _310
REMARK  131  A    between atoms: _309  and  _312
REMARK  132  A    between atoms: _312  and  _313
REMARK  133  A    between atoms: _324  and  _325
REMARK  134  A    between atoms: _330  and  _332
REMARK  135  A    between atoms: _332  and  _333
REMARK  136  A    between atoms: _336  and  _338
REMARK  137  A    between atoms: _338  and  _339
REMARK  138  A    between atoms: _338  and  _341
REMARK  139  A    between atoms: _341  and  _342
REMARK  140  A    between atoms: _347  and  _349
REMARK  141  A    between atoms: _349  and  _350
REMARK  142  A    between atoms: _349  and  _352
REMARK  143  A    between atoms: _352  and  _353
REMARK  144  A    between atoms: _358  and  _359
REMARK  145  A    between atoms: _361  and  _363
REMARK  146  A    between atoms: _363  and  _364
REMARK  147  A    between atoms: _367  and  _369
REMARK  148  A    between atoms: _369  and  _370
REMARK  149  A    between atoms: _369  and  _372
REMARK  150  A    between atoms: _372  and  _373
REMARK  151  A    between atoms: _373  and  _374
REMARK  152  A    between atoms: _379  and  _381
REMARK  153  A    between atoms: _381  and  _382
REMARK  154  A    between atoms: _381  and  _384
REMARK  155  A    between atoms: _384  and  _385
REMARK  156  A    between atoms: _385  and  _386
REMARK  157  A    between atoms: _391  and  _393
REMARK  158  A    between atoms: _393  and  _394
REMARK  159  A    between atoms: _393  and  _396
REMARK  160  A    between atoms: _396  and  _397
REMARK  161  A    between atoms: _397  and  _398
REMARK  162  A    between atoms: _400  and  _402
REMARK  163  A    between atoms: _402  and  _403
REMARK  164  A    between atoms: _405  and  _407
REMARK  165  A    between atoms: _407  and  _408
REMARK  166  A    between atoms: _411  and  _413
REMARK  167  A    between atoms: _413  and  _414
REMARK  168  A    between atoms: _413  and  _416
REMARK  169  A    between atoms: _416  and  _417
REMARK  170  A    between atoms: _427  and  _429
REMARK  171  A    between atoms: _429  and  _430
REMARK  172  A    between atoms: _429  and  _432
REMARK  173  A    between atoms: _432  and  _433
REMARK  174  A    between atoms: _433  and  _434
REMARK  175  A    between atoms: _437  and  _439
REMARK  176  A    between atoms: _439  and  _440
REMARK  177  A    between atoms: _442  and  _444
REMARK  178  A    between atoms: _444  and  _445
REMARK  179  A    between atoms: _444  and  _447
REMARK  180  A    between atoms: _450  and  _452
REMARK  181  A    between atoms: _452  and  _453
REMARK  182  A    between atoms: _452  and  _455
REMARK  183  A    between atoms: _455  and  _456
REMARK  184  A    between atoms: _459  and  _461
REMARK  185  A    between atoms: _461  and  _462
REMARK  186  A    between atoms: _461  and  _464
REMARK  187  A    between atoms: _464  and  _465
REMARK  188  A    between atoms: _468  and  _470
REMARK  189  A    between atoms: _470  and  _471
REMARK  190  A    between atoms: _470  and  _473
REMARK  191  A    between atoms: _473  and  _474
REMARK  192  A    between atoms: _474  and  _475
REMARK  193  A    between atoms: _477  and  _479
REMARK  194  A    between atoms: _479  and  _480
REMARK  195  A    between atoms: _482  and  _484
REMARK  196  A    between atoms: _484  and  _485
REMARK  197  A    between atoms: _487  and  _489
REMARK  198  A    between atoms: _489  and  _490
REMARK  199  A    between atoms: _489  and  _492
REMARK  200  A    between atoms: _495  and  _497
REMARK  201  A    between atoms: _497  and  _498
REMARK  202  A    between atoms: _497  and  _500
REMARK  203  A    between atoms: _500  and  _501
REMARK  204  A    between atoms: _504  and  _506
REMARK  205  A    between atoms: _506  and  _507
REMARK  206  A    between atoms: _506  and  _509
REMARK  207  A    between atoms: _509  and  _510
REMARK  208  A    between atoms: _515  and  _516
REMARK  209  A    between atoms: _518  and  _520
REMARK  210  A    between atoms: _520  and  _521
REMARK  211  A    between atoms: _520  and  _523
REMARK  212  A    between atoms: _523  and  _524
REMARK  213  A    between atoms: _529  and  _530
REMARK  214  A    between atoms: _532  and  _534
REMARK  215  A    between atoms: _534  and  _535
REMARK  216  A    between atoms: _538  and  _540
REMARK  217  A    between atoms: _540  and  _541
REMARK  218  A    between atoms: _540  and  _543
REMARK  219  A    between atoms: _543  and  _544
REMARK  220  A    between atoms: _550  and  _552
REMARK  221  A    between atoms: _552  and  _553
REMARK  222  A    between atoms: _552  and  _555
REMARK  223  A    between atoms: _555  and  _556
REMARK  224  A    between atoms: _558  and  _560
REMARK  225  A    between atoms: _560  and  _561
REMARK  226  A    between atoms: _560  and  _563
REMARK  227  A    between atoms: _563  and  _564
REMARK  228  A    between atoms: _567  and  _569
REMARK  229  A    between atoms: _569  and  _570
REMARK  230  A    between atoms: _569  and  _572
REMARK  231  A    between atoms: _572  and  _573
REMARK  232  A    between atoms: _576  and  _578
REMARK  233  A    between atoms: _578  and  _579
REMARK  234  A    between atoms: _578  and  _581
REMARK  235  A    between atoms: _581  and  _582
REMARK  236  A    between atoms: _592  and  _594
REMARK  237  A    between atoms: _594  and  _595
REMARK  238  A    between atoms: _594  and  _597
REMARK  239  A    between atoms: _597  and  _598
REMARK  240  A    between atoms: _598  and  _599
REMARK  241  A    between atoms: _601  and  _603
REMARK  242  A    between atoms: _603  and  _604
REMARK  243  A    between atoms: _603  and  _606
REMARK  244  A    between atoms: _606  and  _607
REMARK  245  A    between atoms: _610  and  _612
REMARK  246  A    between atoms: _612  and  _613
REMARK  247  A    between atoms: _612  and  _615
REMARK  248  A    between atoms: _615  and  _616
REMARK  249  A    between atoms: _619  and  _621
REMARK  250  A    between atoms: _621  and  _622
REMARK  251  A    between atoms: _625  and  _627
REMARK  252  A    between atoms: _627  and  _628
REMARK  253  A    between atoms: _627  and  _630
REMARK  254  A    between atoms: _630  and  _631
REMARK  255  A    between atoms: _634  and  _636
REMARK  256  A    between atoms: _636  and  _637
REMARK  257  A    between atoms: _639  and  _641
REMARK  258  A    between atoms: _641  and  _642
REMARK  259  A    between atoms: _641  and  _644
REMARK  260  A    between atoms: _644  and  _645
REMARK  261  A    between atoms: _650  and  _652
REMARK  262  A    between atoms: _652  and  _653
REMARK  263  A    between atoms: _652  and  _655
REMARK  264  A    between atoms: _655  and  _656
REMARK                            x       y       z     vdW  Elec       q    Type
REMARK                         _______ _______ _______ _____ _____    ______ ____
ROOT
ATOM      1  O   HOH     1      22.122 113.750  16.267  0.00  0.00    +0.000 OA
ENDROOT
TORSDOF 0
REMARK  Name = ../refined-set-2016/4c1t/4c1t_pocket.pdb
REMARK  264 active torsions:
REMARK  status: ('A' for Active; 'I' for Inactive)
REMARK    1  A    between atoms: _1  and  _3
REMARK    2  A    between atoms: _3  and  _4
REMARK    3  A    between atoms: _3  and  _6
REMARK    4  A    between atoms: _6  and  _7
REMARK    5  A    between atoms: _12  and  _14
REMARK    6  A    between atoms: _14  and  _15
REMARK    7  A    between atoms: _14  and  _17
REMARK    8  A    between atoms: _17  and  _18
REMARK    9  A    between atoms: _23  and  _25
REMARK   10  A    between atoms: _25  and  _26
REMARK   11  A    between atoms: _29  and  _31
REMARK   12  A    between atoms: _31  and  _32
REMARK   13  A    between atoms: _31  and  _34
REMARK   14  A    between atoms: _34  and  _35
REMARK   15  A    between atoms: _37  and  _39
REMARK   16  A    between atoms: _39  and  _40
REMARK   17  A    between atoms: _43  and  _45
REMARK   18  A    between atoms: _45  and  _46
REMARK   19  A    between atoms: _48  and  _50
REMARK   20  A    between atoms: _50  and  _51
REMARK   21  A    between atoms: _50  and  _53
REMARK   22  A    between atoms: _53  and  _54
REMARK   23  A    between atoms: _54  and  _55
REMARK   24  A    between atoms: _58  and  _60
REMARK   25  A    between atoms: _60  and  _61
REMARK   26  A    between atoms: _63  and  _65
REMARK   27  A    between atoms: _65  and  _66
REMARK   28  A    between atoms: _65  and  _68
REMARK   29  A    between atoms: _68  and  _69
REMARK   30  A    between atoms: _69  and  _70
REMARK   31  A    between atoms: _70  and  _71
REMARK   32  A    between atoms: _80  and  _82
REMARK   33  A    between atoms: _82  and  _83
REMARK   34  A    between atoms: _82  and  _85
REMARK   35  A    between atoms: _85  and  _86
REMARK   36  A    between atoms: _86  and  _87
REMARK   37  A    between atoms: _92  and  _94
REMARK   38  A    between atoms: _94  and  _95
REMARK   39  A    between atoms: _94  and  _97
REMARK   40  A    between atoms: _97  and  _98
REMARK   41  A    between atoms: _103  and  _104
REMARK   42  A    between atoms: _106  and  _108
REMARK   43  A    between atoms: _108  and  _109
REMARK   44  A    between atoms: _108  and  _111
REMARK   45  A    between atoms: _111  and  _112
REMARK   46  A    between atoms: _122  and  _124
REMARK   47  A    between atoms: _124  and  _125
REMARK   48  A    between atoms: _124  and  _127
REMARK   49  A    between atoms: _127  and  _128
REMARK   50  A    between atoms: _131  and  _133
REMARK   51  A    between atoms: _133  and  _134
REMARK   52  A    between atoms: _133  and  _136
REMARK   53  A    between atoms: _136  and  _137
REMARK   54  A    between atoms: _137  and  _138
REMARK   55  A    between atoms: _143  and  _145
REMARK   56  A    between atoms: _145  and  _146
REMARK   57  A    between atoms: _145  and  _148
REMARK   58  A    between atoms: _148  and  _149
REMARK   59  A    between atoms: _154  and  _156
REMARK   60  A    between atoms: _156  and  _157
REMARK   61  A    between atoms: _156  and  _159
REMARK   62  A    between atoms: _159  and  _160
REMARK   63  A    between atoms: _160  and  _161
REMARK   64  A    between atoms: _164  and  _166
REMARK   65  A    between atoms: _166  and  _167
REMARK   66  A    between atoms: _166  and  _169
REMARK   67  A    between atoms: _169  and  _170
REMARK   68  A    between atoms: _173  and  _175
REMARK   69  A    between atoms: _175  and  _176
REMARK   70  A    between atoms: _175  and  _178
REMARK   71  A    between atoms: _178  and  _179
REMARK   72  A    between atoms: _185  and  _187
REMARK   73  A    between atoms: _187  and  _188
REMARK   74  A    between atoms: _191  and  _193
REMARK   75  A    between atoms: _193  and  _194
REMARK   76  A    between atoms: _196  and  _198
REMARK   77  A    between atoms: _198  and  _199
REMARK   78  A    between atoms: _198  and  _201
REMARK   79  A    between atoms: _201  and  _202
REMARK   80  A    between atoms: _202  and  _203
REMARK   81  A    between atoms: _203  and  _204
REMARK   82  A    between atoms: _204  and  _205
REMARK   83  A    between atoms: _209  and  _211
REMARK   84  A    between atoms: _211  and  _212
REMARK   85  A    between atoms: _211  and  _214
REMARK   86  A    between atoms: _214  and  _215
REMARK   87  A    between atoms: _218  and  _220
REMARK   88  A    between atoms: _220  and  _221
REMARK   89  A    between atoms: _220  and  _223
REMARK   90  A    between atoms: _223  and  _224
REMARK   91  A    between atoms: _224  and  _225
REMARK   92  A    between atoms: _230  and  _232
REMARK   93  A    between atoms: _232  and  _233
REMARK   94  A    between atoms: _232  and  _235
REMARK   95  A    between atoms: _235  and  _236
REMARK   96  A    between atoms: _236  and  _237
REMARK   97  A    between atoms: _239  and  _241
REMARK   98  A    between atoms: _241  and  _242
REMARK   99  A    between atoms: _241  and  _244
REMARK  100  A    between atoms: _244  and  _245
REMARK  101  A    between atoms: _247  and  _249
REMARK  102  A    between atoms: _249  and  _250
REMARK  103  A    between atoms: _249  and  _252
REMARK  104  A    between atoms: _252  and  _253
REMARK  105  A    between atoms: _256  and  _258
REMARK  106  A    between atoms: _258  and  _259
REMARK  107  A    between atoms: _261  and  _263
REMARK  108  A    between atoms: _263  and  _264
REMARK  109  A    between atoms: _263  and  _266
REMARK  110  A    between atoms: _266  and  _267
REMARK  111  A    between atoms: _267  and  _268
REMARK  112  A    between atoms: _268  and  _269
REMARK  113  A    between atoms: _269  and  _270
REMARK  114  A    between atoms: _274  and  _276
REMARK  115  A    between atoms: _276  and  _277
REMARK  116  A    between atoms: _276  and  _279
REMARK  117  A    between atoms: _279  and  _280
REMARK  118  A    between atoms: _282  and  _284
REMARK  119  A    between atoms: _284  and  _285
REMARK  120  A    between atoms: _284  and  _287
REMARK  121  A    between atoms: _287  and  _288
REMARK  122  A    between atoms: _288  and  _289
REMARK  123  A    between atoms: _292  and  _294
REMARK  124  A    between atoms: _294  and  _295
REMARK  125  A    between atoms: _294  and  _297
REMARK  126  A    between atoms: _297  and  _298
REMARK  127  A    between atoms: _301  and  _303
REMARK  128  A    between atoms: _303  and  _304
REMARK  129  A    between atoms: _307  and  _309
REMARK  130  A    between atoms: _309  and  _310
REMARK  131  A    between atoms: _309  and  _312
REMARK  132  A    between atoms: _312  and  _313
REMARK  133  A    between atoms: _324  and  _325
REMARK  134  A    between atoms: _330  and  _332
REMARK  135  A    between atoms: _332  and  _333
REMARK  136  A    between atoms: _336  and  _338
REMARK  137  A    between atoms: _338  and  _339
REMARK  138  A    between atoms: _338  and  _341
REMARK  139  A    between atoms: _341  and  _342
REMARK  140  A    between atoms: _347  and  _349
REMARK  141  A    between atoms: _349  and  _350
REMARK  142  A    between atoms: _349  and  _352
REMARK  143  A    between atoms: _352  and  _353
REMARK  144  A    between atoms: _358  and  _359
REMARK  145  A    between atoms: _361  and  _363
REMARK  146  A    between atoms: _363  and  _364
REMARK  147  A    between atoms: _367  and  _369
REMARK  148  A    between atoms: _369  and  _370
REMARK  149  A    between atoms: _369  and  _372
REMARK  150  A    between atoms: _372  and  _373
REMARK  151  A    between atoms: _373  and  _374
REMARK  152  A    between atoms: _379  and  _381
REMARK  153  A    between atoms: _381  and  _382
REMARK  154  A    between atoms: _381  and  _384
REMARK  155  A    between atoms: _384  and  _385
REMARK  156  A    between atoms: _385  and  _386
REMARK  157  A    between atoms: _391  and  _393
REMARK  158  A    between atoms: _393  and  _394
REMARK  159  A    between atoms: _393  and  _396
REMARK  160  A    between atoms: _396  and  _397
REMARK  161  A    between atoms: _397  and  _398
REMARK  162  A    between atoms: _400  and  _402
REMARK  163  A    between atoms: _402  and  _403
REMARK  164  A    between atoms: _405  and  _407
REMARK  165  A    between atoms: _407  and  _408
REMARK  166  A    between atoms: _411  and  _413
REMARK  167  A    between atoms: _413  and  _414
REMARK  168  A    between atoms: _413  and  _416
REMARK  169  A    between atoms: _416  and  _417
REMARK  170  A    between atoms: _427  and  _429
REMARK  171  A    between atoms: _429  and  _430
REMARK  172  A    between atoms: _429  and  _432
REMARK  173  A    between atoms: _432  and  _433
REMARK  174  A    between atoms: _433  and  _434
REMARK  175  A    between atoms: _437  and  _439
REMARK  176  A    between atoms: _439  and  _440
REMARK  177  A    between atoms: _442  and  _444
REMARK  178  A    between atoms: _444  and  _445
REMARK  179  A    between atoms: _444  and  _447
REMARK  180  A    between atoms: _450  and  _452
REMARK  181  A    between atoms: _452  and  _453
REMARK  182  A    between atoms: _452  and  _455
REMARK  183  A    between atoms: _455  and  _456
REMARK  184  A    between atoms: _459  and  _461
REMARK  185  A    between atoms: _461  and  _462
REMARK  186  A    between atoms: _461  and  _464
REMARK  187  A    between atoms: _464  and  _465
REMARK  188  A    between atoms: _468  and  _470
REMARK  189  A    between atoms: _470  and  _471
REMARK  190  A    between atoms: _470  and  _473
REMARK  191  A    between atoms: _473  and  _474
REMARK  192  A    between atoms: _474  and  _475
REMARK  193  A    between atoms: _477  and  _479
REMARK  194  A    between atoms: _479  and  _480
REMARK  195  A    between atoms: _482  and  _484
REMARK  196  A    between atoms: _484  and  _485
REMARK  197  A    between atoms: _487  and  _489
REMARK  198  A    between atoms: _489  and  _490
REMARK  199  A    between atoms: _489  and  _492
REMARK  200  A    between atoms: _495  and  _497
REMARK  201  A    between atoms: _497  and  _498
REMARK  202  A    between atoms: _497  and  _500
REMARK  203  A    between atoms: _500  and  _501
REMARK  204  A    between atoms: _504  and  _506
REMARK  205  A    between atoms: _506  and  _507
REMARK  206  A    between atoms: _506  and  _509
REMARK  207  A    between atoms: _509  and  _510
REMARK  208  A    between atoms: _515  and  _516
REMARK  209  A    between atoms: _518  and  _520
REMARK  210  A    between atoms: _520  and  _521
REMARK  211  A    between atoms: _520  and  _523
REMARK  212  A    between atoms: _523  and  _524
REMARK  213  A    between atoms: _529  and  _530
REMARK  214  A    between atoms: _532  and  _534
REMARK  215  A    between atoms: _534  and  _535
REMARK  216  A    between atoms: _538  and  _540
REMARK  217  A    between atoms: _540  and  _541
REMARK  218  A    between atoms: _540  and  _543
REMARK  219  A    between atoms: _543  and  _544
REMARK  220  A    between atoms: _550  and  _552
REMARK  221  A    between atoms: _552  and  _553
REMARK  222  A    between atoms: _552  and  _555
REMARK  223  A    between atoms: _555  and  _556
REMARK  224  A    between atoms: _558  and  _560
REMARK  225  A    between atoms: _560  and  _561
REMARK  226  A    between atoms: _560  and  _563
REMARK  227  A    between atoms: _563  and  _564
REMARK  228  A    between atoms: _567  and  _569
REMARK  229  A    between atoms: _569  and  _570
REMARK  230  A    between atoms: _569  and  _572
REMARK  231  A    between atoms: _572  and  _573
REMARK  232  A    between atoms: _576  and  _578
REMARK  233  A    between atoms: _578  and  _579
REMARK  234  A    between atoms: _578  and  _581
REMARK  235  A    between atoms: _581  and  _582
REMARK  236  A    between atoms: _592  and  _594
REMARK  237  A    between atoms: _594  and  _595
REMARK  238  A    between atoms: _594  and  _597
REMARK  239  A    between atoms: _597  and  _598
REMARK  240  A    between atoms: _598  and  _599
REMARK  241  A    between atoms: _601  and  _603
REMARK  242  A    between atoms: _603  and  _604
REMARK  243  A    between atoms: _603  and  _606
REMARK  244  A    between atoms: _606  and  _607
REMARK  245  A    between atoms: _610  and  _612
REMARK  246  A    between atoms: _612  and  _613
REMARK  247  A    between atoms: _612  and  _615
REMARK  248  A    between atoms: _615  and  _616
REMARK  249  A    between atoms: _619  and  _621
REMARK  250  A    between atoms: _621  and  _622
REMARK  251  A    between atoms: _625  and  _627
REMARK  252  A    between atoms: _627  and  _628
REMARK  253  A    between atoms: _627  and  _630
REMARK  254  A    between atoms: _630  and  _631
REMARK  255  A    between atoms: _634  and  _636
REMARK  256  A    between atoms: _636  and  _637
REMARK  257  A    between atoms: _639  and  _641
REMARK  258  A    between atoms: _641  and  _642
REMARK  259  A    between atoms: _641  and  _644
REMARK  260  A    between atoms: _644  and  _645
REMARK  261  A    between atoms: _650  and  _652
REMARK  262  A    between atoms: _652  and  _653
REMARK  263  A    between atoms: _652  and  _655
REMARK  264  A    between atoms: _655  and  _656
REMARK                            x       y       z     vdW  Elec       q    Type
REMARK                         _______ _______ _______ _____ _____    ______ ____
ROOT
ATOM      1  O   HOH     1      10.341 118.032  21.068  0.00  0.00    +0.000 OA
ENDROOT
TORSDOF 0
REMARK  Name = ../refined-set-2016/4c1t/4c1t_pocket.pdb
REMARK  264 active torsions:
REMARK  status: ('A' for Active; 'I' for Inactive)
REMARK    1  A    between atoms: _1  and  _3
REMARK    2  A    between atoms: _3  and  _4
REMARK    3  A    between atoms: _3  and  _6
REMARK    4  A    between atoms: _6  and  _7
REMARK    5  A    between atoms: _12  and  _14
REMARK    6  A    between atoms: _14  and  _15
REMARK    7  A    between atoms: _14  and  _17
REMARK    8  A    between atoms: _17  and  _18
REMARK    9  A    between atoms: _23  and  _25
REMARK   10  A    between atoms: _25  and  _26
REMARK   11  A    between atoms: _29  and  _31
REMARK   12  A    between atoms: _31  and  _32
REMARK   13  A    between atoms: _31  and  _34
REMARK   14  A    between atoms: _34  and  _35
REMARK   15  A    between atoms: _37  and  _39
REMARK   16  A    between atoms: _39  and  _40
REMARK   17  A    between atoms: _43  and  _45
REMARK   18  A    between atoms: _45  and  _46
REMARK   19  A    between atoms: _48  and  _50
REMARK   20  A    between atoms: _50  and  _51
REMARK   21  A    between atoms: _50  and  _53
REMARK   22  A    between atoms: _53  and  _54
REMARK   23  A    between atoms: _54  and  _55
REMARK   24  A    between atoms: _58  and  _60
REMARK   25  A    between atoms: _60  and  _61
REMARK   26  A    between atoms: _63  and  _65
REMARK   27  A    between atoms: _65  and  _66
REMARK   28  A    between atoms: _65  and  _68
REMARK   29  A    between atoms: _68  and  _69
REMARK   30  A    between atoms: _69  and  _70
REMARK   31  A    between atoms: _70  and  _71
REMARK   32  A    between atoms: _80  and  _82
REMARK   33  A    between atoms: _82  and  _83
REMARK   34  A    between atoms: _82  and  _85
REMARK   35  A    between atoms: _85  and  _86
REMARK   36  A    between atoms: _86  and  _87
REMARK   37  A    between atoms: _92  and  _94
REMARK   38  A    between atoms: _94  and  _95
REMARK   39  A    between atoms: _94  and  _97
REMARK   40  A    between atoms: _97  and  _98
REMARK   41  A    between atoms: _103  and  _104
REMARK   42  A    between atoms: _106  and  _108
REMARK   43  A    between atoms: _108  and  _109
REMARK   44  A    between atoms: _108  and  _111
REMARK   45  A    between atoms: _111  and  _112
REMARK   46  A    between atoms: _122  and  _124
REMARK   47  A    between atoms: _124  and  _125
REMARK   48  A    between atoms: _124  and  _127
REMARK   49  A    between atoms: _127  and  _128
REMARK   50  A    between atoms: _131  and  _133
REMARK   51  A    between atoms: _133  and  _134
REMARK   52  A    between atoms: _133  and  _136
REMARK   53  A    between atoms: _136  and  _137
REMARK   54  A    between atoms: _137  and  _138
REMARK   55  A    between atoms: _143  and  _145
REMARK   56  A    between atoms: _145  and  _146
REMARK   57  A    between atoms: _145  and  _148
REMARK   58  A    between atoms: _148  and  _149
REMARK   59  A    between atoms: _154  and  _156
REMARK   60  A    between atoms: _156  and  _157
REMARK   61  A    between atoms: _156  and  _159
REMARK   62  A    between atoms: _159  and  _160
REMARK   63  A    between atoms: _160  and  _161
REMARK   64  A    between atoms: _164  and  _166
REMARK   65  A    between atoms: _166  and  _167
REMARK   66  A    between atoms: _166  and  _169
REMARK   67  A    between atoms: _169  and  _170
REMARK   68  A    between atoms: _173  and  _175
REMARK   69  A    between atoms: _175  and  _176
REMARK   70  A    between atoms: _175  and  _178
REMARK   71  A    between atoms: _178  and  _179
REMARK   72  A    between atoms: _185  and  _187
REMARK   73  A    between atoms: _187  and  _188
REMARK   74  A    between atoms: _191  and  _193
REMARK   75  A    between atoms: _193  and  _194
REMARK   76  A    between atoms: _196  and  _198
REMARK   77  A    between atoms: _198  and  _199
REMARK   78  A    between atoms: _198  and  _201
REMARK   79  A    between atoms: _201  and  _202
REMARK   80  A    between atoms: _202  and  _203
REMARK   81  A    between atoms: _203  and  _204
REMARK   82  A    between atoms: _204  and  _205
REMARK   83  A    between atoms: _209  and  _211
REMARK   84  A    between atoms: _211  and  _212
REMARK   85  A    between atoms: _211  and  _214
REMARK   86  A    between atoms: _214  and  _215
REMARK   87  A    between atoms: _218  and  _220
REMARK   88  A    between atoms: _220  and  _221
REMARK   89  A    between atoms: _220  and  _223
REMARK   90  A    between atoms: _223  and  _224
REMARK   91  A    between atoms: _224  and  _225
REMARK   92  A    between atoms: _230  and  _232
REMARK   93  A    between atoms: _232  and  _233
REMARK   94  A    between atoms: _232  and  _235
REMARK   95  A    between atoms: _235  and  _236
REMARK   96  A    between atoms: _236  and  _237
REMARK   97  A    between atoms: _239  and  _241
REMARK   98  A    between atoms: _241  and  _242
REMARK   99  A    between atoms: _241  and  _244
REMARK  100  A    between atoms: _244  and  _245
REMARK  101  A    between atoms: _247  and  _249
REMARK  102  A    between atoms: _249  and  _250
REMARK  103  A    between atoms: _249  and  _252
REMARK  104  A    between atoms: _252  and  _253
REMARK  105  A    between atoms: _256  and  _258
REMARK  106  A    between atoms: _258  and  _259
REMARK  107  A    between atoms: _261  and  _263
REMARK  108  A    between atoms: _263  and  _264
REMARK  109  A    between atoms: _263  and  _266
REMARK  110  A    between atoms: _266  and  _267
REMARK  111  A    between atoms: _267  and  _268
REMARK  112  A    between atoms: _268  and  _269
REMARK  113  A    between atoms: _269  and  _270
REMARK  114  A    between atoms: _274  and  _276
REMARK  115  A    between atoms: _276  and  _277
REMARK  116  A    between atoms: _276  and  _279
REMARK  117  A    between atoms: _279  and  _280
REMARK  118  A    between atoms: _282  and  _284
REMARK  119  A    between atoms: _284  and  _285
REMARK  120  A    between atoms: _284  and  _287
REMARK  121  A    between atoms: _287  and  _288
REMARK  122  A    between atoms: _288  and  _289
REMARK  123  A    between atoms: _292  and  _294
REMARK  124  A    between atoms: _294  and  _295
REMARK  125  A    between atoms: _294  and  _297
REMARK  126  A    between atoms: _297  and  _298
REMARK  127  A    between atoms: _301  and  _303
REMARK  128  A    between atoms: _303  and  _304
REMARK  129  A    between atoms: _307  and  _309
REMARK  130  A    between atoms: _309  and  _310
REMARK  131  A    between atoms: _309  and  _312
REMARK  132  A    between atoms: _312  and  _313
REMARK  133  A    between atoms: _324  and  _325
REMARK  134  A    between atoms: _330  and  _332
REMARK  135  A    between atoms: _332  and  _333
REMARK  136  A    between atoms: _336  and  _338
REMARK  137  A    between atoms: _338  and  _339
REMARK  138  A    between atoms: _338  and  _341
REMARK  139  A    between atoms: _341  and  _342
REMARK  140  A    between atoms: _347  and  _349
REMARK  141  A    between atoms: _349  and  _350
REMARK  142  A    between atoms: _349  and  _352
REMARK  143  A    between atoms: _352  and  _353
REMARK  144  A    between atoms: _358  and  _359
REMARK  145  A    between atoms: _361  and  _363
REMARK  146  A    between atoms: _363  and  _364
REMARK  147  A    between atoms: _367  and  _369
REMARK  148  A    between atoms: _369  and  _370
REMARK  149  A    between atoms: _369  and  _372
REMARK  150  A    between atoms: _372  and  _373
REMARK  151  A    between atoms: _373  and  _374
REMARK  152  A    between atoms: _379  and  _381
REMARK  153  A    between atoms: _381  and  _382
REMARK  154  A    between atoms: _381  and  _384
REMARK  155  A    between atoms: _384  and  _385
REMARK  156  A    between atoms: _385  and  _386
REMARK  157  A    between atoms: _391  and  _393
REMARK  158  A    between atoms: _393  and  _394
REMARK  159  A    between atoms: _393  and  _396
REMARK  160  A    between atoms: _396  and  _397
REMARK  161  A    between atoms: _397  and  _398
REMARK  162  A    between atoms: _400  and  _402
REMARK  163  A    between atoms: _402  and  _403
REMARK  164  A    between atoms: _405  and  _407
REMARK  165  A    between atoms: _407  and  _408
REMARK  166  A    between atoms: _411  and  _413
REMARK  167  A    between atoms: _413  and  _414
REMARK  168  A    between atoms: _413  and  _416
REMARK  169  A    between atoms: _416  and  _417
REMARK  170  A    between atoms: _427  and  _429
REMARK  171  A    between atoms: _429  and  _430
REMARK  172  A    between atoms: _429  and  _432
REMARK  173  A    between atoms: _432  and  _433
REMARK  174  A    between atoms: _433  and  _434
REMARK  175  A    between atoms: _437  and  _439
REMARK  176  A    between atoms: _439  and  _440
REMARK  177  A    between atoms: _442  and  _444
REMARK  178  A    between atoms: _444  and  _445
REMARK  179  A    between atoms: _444  and  _447
REMARK  180  A    between atoms: _450  and  _452
REMARK  181  A    between atoms: _452  and  _453
REMARK  182  A    between atoms: _452  and  _455
REMARK  183  A    between atoms: _455  and  _456
REMARK  184  A    between atoms: _459  and  _461
REMARK  185  A    between atoms: _461  and  _462
REMARK  186  A    between atoms: _461  and  _464
REMARK  187  A    between atoms: _464  and  _465
REMARK  188  A    between atoms: _468  and  _470
REMARK  189  A    between atoms: _470  and  _471
REMARK  190  A    between atoms: _470  and  _473
REMARK  191  A    between atoms: _473  and  _474
REMARK  192  A    between atoms: _474  and  _475
REMARK  193  A    between atoms: _477  and  _479
REMARK  194  A    between atoms: _479  and  _480
REMARK  195  A    between atoms: _482  and  _484
REMARK  196  A    between atoms: _484  and  _485
REMARK  197  A    between atoms: _487  and  _489
REMARK  198  A    between atoms: _489  and  _490
REMARK  199  A    between atoms: _489  and  _492
REMARK  200  A    between atoms: _495  and  _497
REMARK  201  A    between atoms: _497  and  _498
REMARK  202  A    between atoms: _497  and  _500
REMARK  203  A    between atoms: _500  and  _501
REMARK  204  A    between atoms: _504  and  _506
REMARK  205  A    between atoms: _506  and  _507
REMARK  206  A    between atoms: _506  and  _509
REMARK  207  A    between atoms: _509  and  _510
REMARK  208  A    between atoms: _515  and  _516
REMARK  209  A    between atoms: _518  and  _520
REMARK  210  A    between atoms: _520  and  _521
REMARK  211  A    between atoms: _520  and  _523
REMARK  212  A    between atoms: _523  and  _524
REMARK  213  A    between atoms: _529  and  _530
REMARK  214  A    between atoms: _532  and  _534
REMARK  215  A    between atoms: _534  and  _535
REMARK  216  A    between atoms: _538  and  _540
REMARK  217  A    between atoms: _540  and  _541
REMARK  218  A    between atoms: _540  and  _543
REMARK  219  A    between atoms: _543  and  _544
REMARK  220  A    between atoms: _550  and  _552
REMARK  221  A    between atoms: _552  and  _553
REMARK  222  A    between atoms: _552  and  _555
REMARK  223  A    between atoms: _555  and  _556
REMARK  224  A    between atoms: _558  and  _560
REMARK  225  A    between atoms: _560  and  _561
REMARK  226  A    between atoms: _560  and  _563
REMARK  227  A    between atoms: _563  and  _564
REMARK  228  A    between atoms: _567  and  _569
REMARK  229  A    between atoms: _569  and  _570
REMARK  230  A    between atoms: _569  and  _572
REMARK  231  A    between atoms: _572  and  _573
REMARK  232  A    between atoms: _576  and  _578
REMARK  233  A    between atoms: _578  and  _579
REMARK  234  A    between atoms: _578  and  _581
REMARK  235  A    between atoms: _581  and  _582
REMARK  236  A    between atoms: _592  and  _594
REMARK  237  A    between atoms: _594  and  _595
REMARK  238  A    between atoms: _594  and  _597
REMARK  239  A    between atoms: _597  and  _598
REMARK  240  A    between atoms: _598  and  _599
REMARK  241  A    between atoms: _601  and  _603
REMARK  242  A    between atoms: _603  and  _604
REMARK  243  A    between atoms: _603  and  _606
REMARK  244  A    between atoms: _606  and  _607
REMARK  245  A    between atoms: _610  and  _612
REMARK  246  A    between atoms: _612  and  _613
REMARK  247  A    between atoms: _612  and  _615
REMARK  248  A    between atoms: _615  and  _616
REMARK  249  A    between atoms: _619  and  _621
REMARK  250  A    between atoms: _621  and  _622
REMARK  251  A    between atoms: _625  and  _627
REMARK  252  A    between atoms: _627  and  _628
REMARK  253  A    between atoms: _627  and  _630
REMARK  254  A    between atoms: _630  and  _631
REMARK  255  A    between atoms: _634  and  _636
REMARK  256  A    between atoms: _636  and  _637
REMARK  257  A    between atoms: _639  and  _641
REMARK  258  A    between atoms: _641  and  _642
REMARK  259  A    between atoms: _641  and  _644
REMARK  260  A    between atoms: _644  and  _645
REMARK  261  A    between atoms: _650  and  _652
REMARK  262  A    between atoms: _652  and  _653
REMARK  263  A    between atoms: _652  and  _655
REMARK  264  A    between atoms: _655  and  _656
REMARK                            x       y       z     vdW  Elec       q    Type
REMARK                         _______ _______ _______ _____ _____    ______ ____
ROOT
ATOM      1  O   HOH     1      19.081 126.122  12.944  0.00  0.00    +0.000 OA
ENDROOT
TORSDOF 0
REMARK  Name = ../refined-set-2016/4c1t/4c1t_pocket.pdb
REMARK  264 active torsions:
REMARK  status: ('A' for Active; 'I' for Inactive)
REMARK    1  A    between atoms: _1  and  _3
REMARK    2  A    between atoms: _3  and  _4
REMARK    3  A    between atoms: _3  and  _6
REMARK    4  A    between atoms: _6  and  _7
REMARK    5  A    between atoms: _12  and  _14
REMARK    6  A    between atoms: _14  and  _15
REMARK    7  A    between atoms: _14  and  _17
REMARK    8  A    between atoms: _17  and  _18
REMARK    9  A    between atoms: _23  and  _25
REMARK   10  A    between atoms: _25  and  _26
REMARK   11  A    between atoms: _29  and  _31
REMARK   12  A    between atoms: _31  and  _32
REMARK   13  A    between atoms: _31  and  _34
REMARK   14  A    between atoms: _34  and  _35
REMARK   15  A    between atoms: _37  and  _39
REMARK   16  A    between atoms: _39  and  _40
REMARK   17  A    between atoms: _43  and  _45
REMARK   18  A    between atoms: _45  and  _46
REMARK   19  A    between atoms: _48  and  _50
REMARK   20  A    between atoms: _50  and  _51
REMARK   21  A    between atoms: _50  and  _53
REMARK   22  A    between atoms: _53  and  _54
REMARK   23  A    between atoms: _54  and  _55
REMARK   24  A    between atoms: _58  and  _60
REMARK   25  A    between atoms: _60  and  _61
REMARK   26  A    between atoms: _63  and  _65
REMARK   27  A    between atoms: _65  and  _66
REMARK   28  A    between atoms: _65  and  _68
REMARK   29  A    between atoms: _68  and  _69
REMARK   30  A    between atoms: _69  and  _70
REMARK   31  A    between atoms: _70  and  _71
REMARK   32  A    between atoms: _80  and  _82
REMARK   33  A    between atoms: _82  and  _83
REMARK   34  A    between atoms: _82  and  _85
REMARK   35  A    between atoms: _85  and  _86
REMARK   36  A    between atoms: _86  and  _87
REMARK   37  A    between atoms: _92  and  _94
REMARK   38  A    between atoms: _94  and  _95
REMARK   39  A    between atoms: _94  and  _97
REMARK   40  A    between atoms: _97  and  _98
REMARK   41  A    between atoms: _103  and  _104
REMARK   42  A    between atoms: _106  and  _108
REMARK   43  A    between atoms: _108  and  _109
REMARK   44  A    between atoms: _108  and  _111
REMARK   45  A    between atoms: _111  and  _112
REMARK   46  A    between atoms: _122  and  _124
REMARK   47  A    between atoms: _124  and  _125
REMARK   48  A    between atoms: _124  and  _127
REMARK   49  A    between atoms: _127  and  _128
REMARK   50  A    between atoms: _131  and  _133
REMARK   51  A    between atoms: _133  and  _134
REMARK   52  A    between atoms: _133  and  _136
REMARK   53  A    between atoms: _136  and  _137
REMARK   54  A    between atoms: _137  and  _138
REMARK   55  A    between atoms: _143  and  _145
REMARK   56  A    between atoms: _145  and  _146
REMARK   57  A    between atoms: _145  and  _148
REMARK   58  A    between atoms: _148  and  _149
REMARK   59  A    between atoms: _154  and  _156
REMARK   60  A    between atoms: _156  and  _157
REMARK   61  A    between atoms: _156  and  _159
REMARK   62  A    between atoms: _159  and  _160
REMARK   63  A    between atoms: _160  and  _161
REMARK   64  A    between atoms: _164  and  _166
REMARK   65  A    between atoms: _166  and  _167
REMARK   66  A    between atoms: _166  and  _169
REMARK   67  A    between atoms: _169  and  _170
REMARK   68  A    between atoms: _173  and  _175
REMARK   69  A    between atoms: _175  and  _176
REMARK   70  A    between atoms: _175  and  _178
REMARK   71  A    between atoms: _178  and  _179
REMARK   72  A    between atoms: _185  and  _187
REMARK   73  A    between atoms: _187  and  _188
REMARK   74  A    between atoms: _191  and  _193
REMARK   75  A    between atoms: _193  and  _194
REMARK   76  A    between atoms: _196  and  _198
REMARK   77  A    between atoms: _198  and  _199
REMARK   78  A    between atoms: _198  and  _201
REMARK   79  A    between atoms: _201  and  _202
REMARK   80  A    between atoms: _202  and  _203
REMARK   81  A    between atoms: _203  and  _204
REMARK   82  A    between atoms: _204  and  _205
REMARK   83  A    between atoms: _209  and  _211
REMARK   84  A    between atoms: _211  and  _212
REMARK   85  A    between atoms: _211  and  _214
REMARK   86  A    between atoms: _214  and  _215
REMARK   87  A    between atoms: _218  and  _220
REMARK   88  A    between atoms: _220  and  _221
REMARK   89  A    between atoms: _220  and  _223
REMARK   90  A    between atoms: _223  and  _224
REMARK   91  A    between atoms: _224  and  _225
REMARK   92  A    between atoms: _230  and  _232
REMARK   93  A    between atoms: _232  and  _233
REMARK   94  A    between atoms: _232  and  _235
REMARK   95  A    between atoms: _235  and  _236
REMARK   96  A    between atoms: _236  and  _237
REMARK   97  A    between atoms: _239  and  _241
REMARK   98  A    between atoms: _241  and  _242
REMARK   99  A    between atoms: _241  and  _244
REMARK  100  A    between atoms: _244  and  _245
REMARK  101  A    between atoms: _247  and  _249
REMARK  102  A    between atoms: _249  and  _250
REMARK  103  A    between atoms: _249  and  _252
REMARK  104  A    between atoms: _252  and  _253
REMARK  105  A    between atoms: _256  and  _258
REMARK  106  A    between atoms: _258  and  _259
REMARK  107  A    between atoms: _261  and  _263
REMARK  108  A    between atoms: _263  and  _264
REMARK  109  A    between atoms: _263  and  _266
REMARK  110  A    between atoms: _266  and  _267
REMARK  111  A    between atoms: _267  and  _268
REMARK  112  A    between atoms: _268  and  _269
REMARK  113  A    between atoms: _269  and  _270
REMARK  114  A    between atoms: _274  and  _276
REMARK  115  A    between atoms: _276  and  _277
REMARK  116  A    between atoms: _276  and  _279
REMARK  117  A    between atoms: _279  and  _280
REMARK  118  A    between atoms: _282  and  _284
REMARK  119  A    between atoms: _284  and  _285
REMARK  120  A    between atoms: _284  and  _287
REMARK  121  A    between atoms: _287  and  _288
REMARK  122  A    between atoms: _288  and  _289
REMARK  123  A    between atoms: _292  and  _294
REMARK  124  A    between atoms: _294  and  _295
REMARK  125  A    between atoms: _294  and  _297
REMARK  126  A    between atoms: _297  and  _298
REMARK  127  A    between atoms: _301  and  _303
REMARK  128  A    between atoms: _303  and  _304
REMARK  129  A    between atoms: _307  and  _309
REMARK  130  A    between atoms: _309  and  _310
REMARK  131  A    between atoms: _309  and  _312
REMARK  132  A    between atoms: _312  and  _313
REMARK  133  A    between atoms: _324  and  _325
REMARK  134  A    between atoms: _330  and  _332
REMARK  135  A    between atoms: _332  and  _333
REMARK  136  A    between atoms: _336  and  _338
REMARK  137  A    between atoms: _338  and  _339
REMARK  138  A    between atoms: _338  and  _341
REMARK  139  A    between atoms: _341  and  _342
REMARK  140  A    between atoms: _347  and  _349
REMARK  141  A    between atoms: _349  and  _350
REMARK  142  A    between atoms: _349  and  _352
REMARK  143  A    between atoms: _352  and  _353
REMARK  144  A    between atoms: _358  and  _359
REMARK  145  A    between atoms: _361  and  _363
REMARK  146  A    between atoms: _363  and  _364
REMARK  147  A    between atoms: _367  and  _369
REMARK  148  A    between atoms: _369  and  _370
REMARK  149  A    between atoms: _369  and  _372
REMARK  150  A    between atoms: _372  and  _373
REMARK  151  A    between atoms: _373  and  _374
REMARK  152  A    between atoms: _379  and  _381
REMARK  153  A    between atoms: _381  and  _382
REMARK  154  A    between atoms: _381  and  _384
REMARK  155  A    between atoms: _384  and  _385
REMARK  156  A    between atoms: _385  and  _386
REMARK  157  A    between atoms: _391  and  _393
REMARK  158  A    between atoms: _393  and  _394
REMARK  159  A    between atoms: _393  and  _396
REMARK  160  A    between atoms: _396  and  _397
REMARK  161  A    between atoms: _397  and  _398
REMARK  162  A    between atoms: _400  and  _402
REMARK  163  A    between atoms: _402  and  _403
REMARK  164  A    between atoms: _405  and  _407
REMARK  165  A    between atoms: _407  and  _408
REMARK  166  A    between atoms: _411  and  _413
REMARK  167  A    between atoms: _413  and  _414
REMARK  168  A    between atoms: _413  and  _416
REMARK  169  A    between atoms: _416  and  _417
REMARK  170  A    between atoms: _427  and  _429
REMARK  171  A    between atoms: _429  and  _430
REMARK  172  A    between atoms: _429  and  _432
REMARK  173  A    between atoms: _432  and  _433
REMARK  174  A    between atoms: _433  and  _434
REMARK  175  A    between atoms: _437  and  _439
REMARK  176  A    between atoms: _439  and  _440
REMARK  177  A    between atoms: _442  and  _444
REMARK  178  A    between atoms: _444  and  _445
REMARK  179  A    between atoms: _444  and  _447
REMARK  180  A    between atoms: _450  and  _452
REMARK  181  A    between atoms: _452  and  _453
REMARK  182  A    between atoms: _452  and  _455
REMARK  183  A    between atoms: _455  and  _456
REMARK  184  A    between atoms: _459  and  _461
REMARK  185  A    between atoms: _461  and  _462
REMARK  186  A    between atoms: _461  and  _464
REMARK  187  A    between atoms: _464  and  _465
REMARK  188  A    between atoms: _468  and  _470
REMARK  189  A    between atoms: _470  and  _471
REMARK  190  A    between atoms: _470  and  _473
REMARK  191  A    between atoms: _473  and  _474
REMARK  192  A    between atoms: _474  and  _475
REMARK  193  A    between atoms: _477  and  _479
REMARK  194  A    between atoms: _479  and  _480
REMARK  195  A    between atoms: _482  and  _484
REMARK  196  A    between atoms: _484  and  _485
REMARK  197  A    between atoms: _487  and  _489
REMARK  198  A    between atoms: _489  and  _490
REMARK  199  A    between atoms: _489  and  _492
REMARK  200  A    between atoms: _495  and  _497
REMARK  201  A    between atoms: _497  and  _498
REMARK  202  A    between atoms: _497  and  _500
REMARK  203  A    between atoms: _500  and  _501
REMARK  204  A    between atoms: _504  and  _506
REMARK  205  A    between atoms: _506  and  _507
REMARK  206  A    between atoms: _506  and  _509
REMARK  207  A    between atoms: _509  and  _510
REMARK  208  A    between atoms: _515  and  _516
REMARK  209  A    between atoms: _518  and  _520
REMARK  210  A    between atoms: _520  and  _521
REMARK  211  A    between atoms: _520  and  _523
REMARK  212  A    between atoms: _523  and  _524
REMARK  213  A    between atoms: _529  and  _530
REMARK  214  A    between atoms: _532  and  _534
REMARK  215  A    between atoms: _534  and  _535
REMARK  216  A    between atoms: _538  and  _540
REMARK  217  A    between atoms: _540  and  _541
REMARK  218  A    between atoms: _540  and  _543
REMARK  219  A    between atoms: _543  and  _544
REMARK  220  A    between atoms: _550  and  _552
REMARK  221  A    between atoms: _552  and  _553
REMARK  222  A    between atoms: _552  and  _555
REMARK  223  A    between atoms: _555  and  _556
REMARK  224  A    between atoms: _558  and  _560
REMARK  225  A    between atoms: _560  and  _561
REMARK  226  A    between atoms: _560  and  _563
REMARK  227  A    between atoms: _563  and  _564
REMARK  228  A    between atoms: _567  and  _569
REMARK  229  A    between atoms: _569  and  _570
REMARK  230  A    between atoms: _569  and  _572
REMARK  231  A    between atoms: _572  and  _573
REMARK  232  A    between atoms: _576  and  _578
REMARK  233  A    between atoms: _578  and  _579
REMARK  234  A    between atoms: _578  and  _581
REMARK  235  A    between atoms: _581  and  _582
REMARK  236  A    between atoms: _592  and  _594
REMARK  237  A    between atoms: _594  and  _595
REMARK  238  A    between atoms: _594  and  _597
REMARK  239  A    between atoms: _597  and  _598
REMARK  240  A    between atoms: _598  and  _599
REMARK  241  A    between atoms: _601  and  _603
REMARK  242  A    between atoms: _603  and  _604
REMARK  243  A    between atoms: _603  and  _606
REMARK  244  A    between atoms: _606  and  _607
REMARK  245  A    between atoms: _610  and  _612
REMARK  246  A    between atoms: _612  and  _613
REMARK  247  A    between atoms: _612  and  _615
REMARK  248  A    between atoms: _615  and  _616
REMARK  249  A    between atoms: _619  and  _621
REMARK  250  A    between atoms: _621  and  _622
REMARK  251  A    between atoms: _625  and  _627
REMARK  252  A    between atoms: _627  and  _628
REMARK  253  A    between atoms: _627  and  _630
REMARK  254  A    between atoms: _630  and  _631
REMARK  255  A    between atoms: _634  and  _636
REMARK  256  A    between atoms: _636  and  _637
REMARK  257  A    between atoms: _639  and  _641
REMARK  258  A    between atoms: _641  and  _642
REMARK  259  A    between atoms: _641  and  _644
REMARK  260  A    between atoms: _644  and  _645
REMARK  261  A    between atoms: _650  and  _652
REMARK  262  A    between atoms: _652  and  _653
REMARK  263  A    between atoms: _652  and  _655
REMARK  264  A    between atoms: _655  and  _656
REMARK                            x       y       z     vdW  Elec       q    Type
REMARK                         _______ _______ _______ _____ _____    ______ ____
ROOT
ATOM      1  O   HOH     1      24.805 114.494   9.364  0.00  0.00    +0.000 OA
ENDROOT
TORSDOF 0
REMARK  Name = ../refined-set-2016/4c1t/4c1t_pocket.pdb
REMARK  264 active torsions:
REMARK  status: ('A' for Active; 'I' for Inactive)
REMARK    1  A    between atoms: _1  and  _3
REMARK    2  A    between atoms: _3  and  _4
REMARK    3  A    between atoms: _3  and  _6
REMARK    4  A    between atoms: _6  and  _7
REMARK    5  A    between atoms: _12  and  _14
REMARK    6  A    between atoms: _14  and  _15
REMARK    7  A    between atoms: _14  and  _17
REMARK    8  A    between atoms: _17  and  _18
REMARK    9  A    between atoms: _23  and  _25
REMARK   10  A    between atoms: _25  and  _26
REMARK   11  A    between atoms: _29  and  _31
REMARK   12  A    between atoms: _31  and  _32
REMARK   13  A    between atoms: _31  and  _34
REMARK   14  A    between atoms: _34  and  _35
REMARK   15  A    between atoms: _37  and  _39
REMARK   16  A    between atoms: _39  and  _40
REMARK   17  A    between atoms: _43  and  _45
REMARK   18  A    between atoms: _45  and  _46
REMARK   19  A    between atoms: _48  and  _50
REMARK   20  A    between atoms: _50  and  _51
REMARK   21  A    between atoms: _50  and  _53
REMARK   22  A    between atoms: _53  and  _54
REMARK   23  A    between atoms: _54  and  _55
REMARK   24  A    between atoms: _58  and  _60
REMARK   25  A    between atoms: _60  and  _61
REMARK   26  A    between atoms: _63  and  _65
REMARK   27  A    between atoms: _65  and  _66
REMARK   28  A    between atoms: _65  and  _68
REMARK   29  A    between atoms: _68  and  _69
REMARK   30  A    between atoms: _69  and  _70
REMARK   31  A    between atoms: _70  and  _71
REMARK   32  A    between atoms: _80  and  _82
REMARK   33  A    between atoms: _82  and  _83
REMARK   34  A    between atoms: _82  and  _85
REMARK   35  A    between atoms: _85  and  _86
REMARK   36  A    between atoms: _86  and  _87
REMARK   37  A    between atoms: _92  and  _94
REMARK   38  A    between atoms: _94  and  _95
REMARK   39  A    between atoms: _94  and  _97
REMARK   40  A    between atoms: _97  and  _98
REMARK   41  A    between atoms: _103  and  _104
REMARK   42  A    between atoms: _106  and  _108
REMARK   43  A    between atoms: _108  and  _109
REMARK   44  A    between atoms: _108  and  _111
REMARK   45  A    between atoms: _111  and  _112
REMARK   46  A    between atoms: _122  and  _124
REMARK   47  A    between atoms: _124  and  _125
REMARK   48  A    between atoms: _124  and  _127
REMARK   49  A    between atoms: _127  and  _128
REMARK   50  A    between atoms: _131  and  _133
REMARK   51  A    between atoms: _133  and  _134
REMARK   52  A    between atoms: _133  and  _136
REMARK   53  A    between atoms: _136  and  _137
REMARK   54  A    between atoms: _137  and  _138
REMARK   55  A    between atoms: _143  and  _145
REMARK   56  A    between atoms: _145  and  _146
REMARK   57  A    between atoms: _145  and  _148
REMARK   58  A    between atoms: _148  and  _149
REMARK   59  A    between atoms: _154  and  _156
REMARK   60  A    between atoms: _156  and  _157
REMARK   61  A    between atoms: _156  and  _159
REMARK   62  A    between atoms: _159  and  _160
REMARK   63  A    between atoms: _160  and  _161
REMARK   64  A    between atoms: _164  and  _166
REMARK   65  A    between atoms: _166  and  _167
REMARK   66  A    between atoms: _166  and  _169
REMARK   67  A    between atoms: _169  and  _170
REMARK   68  A    between atoms: _173  and  _175
REMARK   69  A    between atoms: _175  and  _176
REMARK   70  A    between atoms: _175  and  _178
REMARK   71  A    between atoms: _178  and  _179
REMARK   72  A    between atoms: _185  and  _187
REMARK   73  A    between atoms: _187  and  _188
REMARK   74  A    between atoms: _191  and  _193
REMARK   75  A    between atoms: _193  and  _194
REMARK   76  A    between atoms: _196  and  _198
REMARK   77  A    between atoms: _198  and  _199
REMARK   78  A    between atoms: _198  and  _201
REMARK   79  A    between atoms: _201  and  _202
REMARK   80  A    between atoms: _202  and  _203
REMARK   81  A    between atoms: _203  and  _204
REMARK   82  A    between atoms: _204  and  _205
REMARK   83  A    between atoms: _209  and  _211
REMARK   84  A    between atoms: _211  and  _212
REMARK   85  A    between atoms: _211  and  _214
REMARK   86  A    between atoms: _214  and  _215
REMARK   87  A    between atoms: _218  and  _220
REMARK   88  A    between atoms: _220  and  _221
REMARK   89  A    between atoms: _220  and  _223
REMARK   90  A    between atoms: _223  and  _224
REMARK   91  A    between atoms: _224  and  _225
REMARK   92  A    between atoms: _230  and  _232
REMARK   93  A    between atoms: _232  and  _233
REMARK   94  A    between atoms: _232  and  _235
REMARK   95  A    between atoms: _235  and  _236
REMARK   96  A    between atoms: _236  and  _237
REMARK   97  A    between atoms: _239  and  _241
REMARK   98  A    between atoms: _241  and  _242
REMARK   99  A    between atoms: _241  and  _244
REMARK  100  A    between atoms: _244  and  _245
REMARK  101  A    between atoms: _247  and  _249
REMARK  102  A    between atoms: _249  and  _250
REMARK  103  A    between atoms: _249  and  _252
REMARK  104  A    between atoms: _252  and  _253
REMARK  105  A    between atoms: _256  and  _258
REMARK  106  A    between atoms: _258  and  _259
REMARK  107  A    between atoms: _261  and  _263
REMARK  108  A    between atoms: _263  and  _264
REMARK  109  A    between atoms: _263  and  _266
REMARK  110  A    between atoms: _266  and  _267
REMARK  111  A    between atoms: _267  and  _268
REMARK  112  A    between atoms: _268  and  _269
REMARK  113  A    between atoms: _269  and  _270
REMARK  114  A    between atoms: _274  and  _276
REMARK  115  A    between atoms: _276  and  _277
REMARK  116  A    between atoms: _276  and  _279
REMARK  117  A    between atoms: _279  and  _280
REMARK  118  A    between atoms: _282  and  _284
REMARK  119  A    between atoms: _284  and  _285
REMARK  120  A    between atoms: _284  and  _287
REMARK  121  A    between atoms: _287  and  _288
REMARK  122  A    between atoms: _288  and  _289
REMARK  123  A    between atoms: _292  and  _294
REMARK  124  A    between atoms: _294  and  _295
REMARK  125  A    between atoms: _294  and  _297
REMARK  126  A    between atoms: _297  and  _298
REMARK  127  A    between atoms: _301  and  _303
REMARK  128  A    between atoms: _303  and  _304
REMARK  129  A    between atoms: _307  and  _309
REMARK  130  A    between atoms: _309  and  _310
REMARK  131  A    between atoms: _309  and  _312
REMARK  132  A    between atoms: _312  and  _313
REMARK  133  A    between atoms: _324  and  _325
REMARK  134  A    between atoms: _330  and  _332
REMARK  135  A    between atoms: _332  and  _333
REMARK  136  A    between atoms: _336  and  _338
REMARK  137  A    between atoms: _338  and  _339
REMARK  138  A    between atoms: _338  and  _341
REMARK  139  A    between atoms: _341  and  _342
REMARK  140  A    between atoms: _347  and  _349
REMARK  141  A    between atoms: _349  and  _350
REMARK  142  A    between atoms: _349  and  _352
REMARK  143  A    between atoms: _352  and  _353
REMARK  144  A    between atoms: _358  and  _359
REMARK  145  A    between atoms: _361  and  _363
REMARK  146  A    between atoms: _363  and  _364
REMARK  147  A    between atoms: _367  and  _369
REMARK  148  A    between atoms: _369  and  _370
REMARK  149  A    between atoms: _369  and  _372
REMARK  150  A    between atoms: _372  and  _373
REMARK  151  A    between atoms: _373  and  _374
REMARK  152  A    between atoms: _379  and  _381
REMARK  153  A    between atoms: _381  and  _382
REMARK  154  A    between atoms: _381  and  _384
REMARK  155  A    between atoms: _384  and  _385
REMARK  156  A    between atoms: _385  and  _386
REMARK  157  A    between atoms: _391  and  _393
REMARK  158  A    between atoms: _393  and  _394
REMARK  159  A    between atoms: _393  and  _396
REMARK  160  A    between atoms: _396  and  _397
REMARK  161  A    between atoms: _397  and  _398
REMARK  162  A    between atoms: _400  and  _402
REMARK  163  A    between atoms: _402  and  _403
REMARK  164  A    between atoms: _405  and  _407
REMARK  165  A    between atoms: _407  and  _408
REMARK  166  A    between atoms: _411  and  _413
REMARK  167  A    between atoms: _413  and  _414
REMARK  168  A    between atoms: _413  and  _416
REMARK  169  A    between atoms: _416  and  _417
REMARK  170  A    between atoms: _427  and  _429
REMARK  171  A    between atoms: _429  and  _430
REMARK  172  A    between atoms: _429  and  _432
REMARK  173  A    between atoms: _432  and  _433
REMARK  174  A    between atoms: _433  and  _434
REMARK  175  A    between atoms: _437  and  _439
REMARK  176  A    between atoms: _439  and  _440
REMARK  177  A    between atoms: _442  and  _444
REMARK  178  A    between atoms: _444  and  _445
REMARK  179  A    between atoms: _444  and  _447
REMARK  180  A    between atoms: _450  and  _452
REMARK  181  A    between atoms: _452  and  _453
REMARK  182  A    between atoms: _452  and  _455
REMARK  183  A    between atoms: _455  and  _456
REMARK  184  A    between atoms: _459  and  _461
REMARK  185  A    between atoms: _461  and  _462
REMARK  186  A    between atoms: _461  and  _464
REMARK  187  A    between atoms: _464  and  _465
REMARK  188  A    between atoms: _468  and  _470
REMARK  189  A    between atoms: _470  and  _471
REMARK  190  A    between atoms: _470  and  _473
REMARK  191  A    between atoms: _473  and  _474
REMARK  192  A    between atoms: _474  and  _475
REMARK  193  A    between atoms: _477  and  _479
REMARK  194  A    between atoms: _479  and  _480
REMARK  195  A    between atoms: _482  and  _484
REMARK  196  A    between atoms: _484  and  _485
REMARK  197  A    between atoms: _487  and  _489
REMARK  198  A    between atoms: _489  and  _490
REMARK  199  A    between atoms: _489  and  _492
REMARK  200  A    between atoms: _495  and  _497
REMARK  201  A    between atoms: _497  and  _498
REMARK  202  A    between atoms: _497  and  _500
REMARK  203  A    between atoms: _500  and  _501
REMARK  204  A    between atoms: _504  and  _506
REMARK  205  A    between atoms: _506  and  _507
REMARK  206  A    between atoms: _506  and  _509
REMARK  207  A    between atoms: _509  and  _510
REMARK  208  A    between atoms: _515  and  _516
REMARK  209  A    between atoms: _518  and  _520
REMARK  210  A    between atoms: _520  and  _521
REMARK  211  A    between atoms: _520  and  _523
REMARK  212  A    between atoms: _523  and  _524
REMARK  213  A    between atoms: _529  and  _530
REMARK  214  A    between atoms: _532  and  _534
REMARK  215  A    between atoms: _534  and  _535
REMARK  216  A    between atoms: _538  and  _540
REMARK  217  A    between atoms: _540  and  _541
REMARK  218  A    between atoms: _540  and  _543
REMARK  219  A    between atoms: _543  and  _544
REMARK  220  A    between atoms: _550  and  _552
REMARK  221  A    between atoms: _552  and  _553
REMARK  222  A    between atoms: _552  and  _555
REMARK  223  A    between atoms: _555  and  _556
REMARK  224  A    between atoms: _558  and  _560
REMARK  225  A    between atoms: _560  and  _561
REMARK  226  A    between atoms: _560  and  _563
REMARK  227  A    between atoms: _563  and  _564
REMARK  228  A    between atoms: _567  and  _569
REMARK  229  A    between atoms: _569  and  _570
REMARK  230  A    between atoms: _569  and  _572
REMARK  231  A    between atoms: _572  and  _573
REMARK  232  A    between atoms: _576  and  _578
REMARK  233  A    between atoms: _578  and  _579
REMARK  234  A    between atoms: _578  and  _581
REMARK  235  A    between atoms: _581  and  _582
REMARK  236  A    between atoms: _592  and  _594
REMARK  237  A    between atoms: _594  and  _595
REMARK  238  A    between atoms: _594  and  _597
REMARK  239  A    between atoms: _597  and  _598
REMARK  240  A    between atoms: _598  and  _599
REMARK  241  A    between atoms: _601  and  _603
REMARK  242  A    between atoms: _603  and  _604
REMARK  243  A    between atoms: _603  and  _606
REMARK  244  A    between atoms: _606  and  _607
REMARK  245  A    between atoms: _610  and  _612
REMARK  246  A    between atoms: _612  and  _613
REMARK  247  A    between atoms: _612  and  _615
REMARK  248  A    between atoms: _615  and  _616
REMARK  249  A    between atoms: _619  and  _621
REMARK  250  A    between atoms: _621  and  _622
REMARK  251  A    between atoms: _625  and  _627
REMARK  252  A    between atoms: _627  and  _628
REMARK  253  A    between atoms: _627  and  _630
REMARK  254  A    between atoms: _630  and  _631
REMARK  255  A    between atoms: _634  and  _636
REMARK  256  A    between atoms: _636  and  _637
REMARK  257  A    between atoms: _639  and  _641
REMARK  258  A    between atoms: _641  and  _642
REMARK  259  A    between atoms: _641  and  _644
REMARK  260  A    between atoms: _644  and  _645
REMARK  261  A    between atoms: _650  and  _652
REMARK  262  A    between atoms: _652  and  _653
REMARK  263  A    between atoms: _652  and  _655
REMARK  264  A    between atoms: _655  and  _656
REMARK                            x       y       z     vdW  Elec       q    Type
REMARK                         _______ _______ _______ _____ _____    ______ ____
ROOT
ATOM      1  O   HOH     1      19.689 116.667  11.599  0.00  0.00    +0.000 OA
ENDROOT
TORSDOF 0
