REMARK  Name = ../refined-set-2016/4f5y/4f5y_pocket.pdb
REMARK  243 active torsions:
REMARK  status: ('A' for Active; 'I' for Inactive)
REMARK    1  A    between atoms: _1  and  _3
REMARK    2  A    between atoms: _3  and  _4
REMARK    3  A    between atoms: _6  and  _8
REMARK    4  A    between atoms: _8  and  _9
REMARK    5  A    between atoms: _8  and  _11
REMARK    6  A    between atoms: _11  and  _12
REMARK    7  A    between atoms: _15  and  _17
REMARK    8  A    between atoms: _17  and  _18
REMARK    9  A    between atoms: _21  and  _23
REMARK   10  A    between atoms: _23  and  _24
REMARK   11  A    between atoms: _23  and  _26
REMARK   12  A    between atoms: _26  and  _27
REMARK   13  A    between atoms: _37  and  _39
REMARK   14  A    between atoms: _39  and  _40
REMARK   15  A    between atoms: _39  and  _42
REMARK   16  A    between atoms: _42  and  _43
REMARK   17  A    between atoms: _45  and  _47
REMARK   18  A    between atoms: _47  and  _48
REMARK   19  A    between atoms: _47  and  _50
REMARK   20  A    between atoms: _50  and  _51
REMARK   21  A    between atoms: _56  and  _57
REMARK   22  A    between atoms: _59  and  _61
REMARK   23  A    between atoms: _61  and  _62
REMARK   24  A    between atoms: _61  and  _64
REMARK   25  A    between atoms: _64  and  _65
REMARK   26  A    between atoms: _70  and  _71
REMARK   27  A    between atoms: _73  and  _75
REMARK   28  A    between atoms: _75  and  _76
REMARK   29  A    between atoms: _75  and  _78
REMARK   30  A    between atoms: _78  and  _79
REMARK   31  A    between atoms: _82  and  _84
REMARK   32  A    between atoms: _84  and  _85
REMARK   33  A    between atoms: _87  and  _89
REMARK   34  A    between atoms: _89  and  _90
REMARK   35  A    between atoms: _89  and  _92
REMARK   36  A    between atoms: _92  and  _93
REMARK   37  A    between atoms: _98  and  _99
REMARK   38  A    between atoms: _101  and  _103
REMARK   39  A    between atoms: _103  and  _104
REMARK   40  A    between atoms: _103  and  _106
REMARK   41  A    between atoms: _106  and  _107
REMARK   42  A    between atoms: _110  and  _112
REMARK   43  A    between atoms: _112  and  _113
REMARK   44  A    between atoms: _112  and  _115
REMARK   45  A    between atoms: _115  and  _116
REMARK   46  A    between atoms: _119  and  _121
REMARK   47  A    between atoms: _121  and  _122
REMARK   48  A    between atoms: _121  and  _124
REMARK   49  A    between atoms: _124  and  _125
REMARK   50  A    between atoms: _128  and  _130
REMARK   51  A    between atoms: _130  and  _131
REMARK   52  A    between atoms: _130  and  _133
REMARK   53  A    between atoms: _133  and  _134
REMARK   54  A    between atoms: _137  and  _139
REMARK   55  A    between atoms: _139  and  _140
REMARK   56  A    between atoms: _139  and  _142
REMARK   57  A    between atoms: _142  and  _143
REMARK   58  A    between atoms: _143  and  _144
REMARK   59  A    between atoms: _144  and  _145
REMARK   60  A    between atoms: _145  and  _146
REMARK   61  A    between atoms: _150  and  _152
REMARK   62  A    between atoms: _152  and  _153
REMARK   63  A    between atoms: _152  and  _155
REMARK   64  A    between atoms: _155  and  _156
REMARK   65  A    between atoms: _159  and  _161
REMARK   66  A    between atoms: _161  and  _162
REMARK   67  A    between atoms: _161  and  _164
REMARK   68  A    between atoms: _164  and  _165
REMARK   69  A    between atoms: _165  and  _166
REMARK   70  A    between atoms: _166  and  _167
REMARK   71  A    between atoms: _176  and  _178
REMARK   72  A    between atoms: _178  and  _179
REMARK   73  A    between atoms: _178  and  _181
REMARK   74  A    between atoms: _184  and  _186
REMARK   75  A    between atoms: _186  and  _187
REMARK   76  A    between atoms: _186  and  _189
REMARK   77  A    between atoms: _189  and  _190
REMARK   78  A    between atoms: _195  and  _196
REMARK   79  A    between atoms: _198  and  _200
REMARK   80  A    between atoms: _200  and  _201
REMARK   81  A    between atoms: _200  and  _203
REMARK   82  A    between atoms: _203  and  _204
REMARK   83  A    between atoms: _206  and  _208
REMARK   84  A    between atoms: _208  and  _209
REMARK   85  A    between atoms: _208  and  _211
REMARK   86  A    between atoms: _211  and  _212
REMARK   87  A    between atoms: _212  and  _213
REMARK   88  A    between atoms: _216  and  _218
REMARK   89  A    between atoms: _218  and  _219
REMARK   90  A    between atoms: _218  and  _221
REMARK   91  A    between atoms: _221  and  _222
REMARK   92  A    between atoms: _227  and  _228
REMARK   93  A    between atoms: _230  and  _232
REMARK   94  A    between atoms: _232  and  _233
REMARK   95  A    between atoms: _236  and  _238
REMARK   96  A    between atoms: _238  and  _239
REMARK   97  A    between atoms: _238  and  _241
REMARK   98  A    between atoms: _241  and  _242
REMARK   99  A    between atoms: _246  and  _247
REMARK  100  A    between atoms: _252  and  _254
REMARK  101  A    between atoms: _254  and  _255
REMARK  102  A    between atoms: _254  and  _257
REMARK  103  A    between atoms: _257  and  _258
REMARK  104  A    between atoms: _261  and  _263
REMARK  105  A    between atoms: _263  and  _264
REMARK  106  A    between atoms: _263  and  _266
REMARK  107  A    between atoms: _266  and  _267
REMARK  108  A    between atoms: _267  and  _268
REMARK  109  A    between atoms: _273  and  _275
REMARK  110  A    between atoms: _275  and  _276
REMARK  111  A    between atoms: _275  and  _278
REMARK  112  A    between atoms: _278  and  _279
REMARK  113  A    between atoms: _282  and  _284
REMARK  114  A    between atoms: _284  and  _285
REMARK  115  A    between atoms: _284  and  _287
REMARK  116  A    between atoms: _287  and  _288
REMARK  117  A    between atoms: _294  and  _296
REMARK  118  A    between atoms: _296  and  _297
REMARK  119  A    between atoms: _299  and  _301
REMARK  120  A    between atoms: _301  and  _302
REMARK  121  A    between atoms: _301  and  _304
REMARK  122  A    between atoms: _304  and  _305
REMARK  123  A    between atoms: _308  and  _310
REMARK  124  A    between atoms: _310  and  _311
REMARK  125  A    between atoms: _314  and  _316
REMARK  126  A    between atoms: _316  and  _317
REMARK  127  A    between atoms: _316  and  _319
REMARK  128  A    between atoms: _319  and  _320
REMARK  129  A    between atoms: _330  and  _332
REMARK  130  A    between atoms: _332  and  _333
REMARK  131  A    between atoms: _332  and  _335
REMARK  132  A    between atoms: _335  and  _336
REMARK  133  A    between atoms: _338  and  _340
REMARK  134  A    between atoms: _340  and  _341
REMARK  135  A    between atoms: _340  and  _343
REMARK  136  A    between atoms: _343  and  _344
REMARK  137  A    between atoms: _349  and  _350
REMARK  138  A    between atoms: _352  and  _354
REMARK  139  A    between atoms: _354  and  _355
REMARK  140  A    between atoms: _354  and  _357
REMARK  141  A    between atoms: _357  and  _358
REMARK  142  A    between atoms: _363  and  _364
REMARK  143  A    between atoms: _366  and  _368
REMARK  144  A    between atoms: _368  and  _369
REMARK  145  A    between atoms: _368  and  _371
REMARK  146  A    between atoms: _371  and  _372
REMARK  147  A    between atoms: _375  and  _377
REMARK  148  A    between atoms: _377  and  _378
REMARK  149  A    between atoms: _380  and  _382
REMARK  150  A    between atoms: _382  and  _383
REMARK  151  A    between atoms: _382  and  _385
REMARK  152  A    between atoms: _385  and  _386
REMARK  153  A    between atoms: _391  and  _392
REMARK  154  A    between atoms: _394  and  _396
REMARK  155  A    between atoms: _396  and  _397
REMARK  156  A    between atoms: _396  and  _399
REMARK  157  A    between atoms: _399  and  _400
REMARK  158  A    between atoms: _403  and  _405
REMARK  159  A    between atoms: _405  and  _406
REMARK  160  A    between atoms: _405  and  _408
REMARK  161  A    between atoms: _408  and  _409
REMARK  162  A    between atoms: _409  and  _410
REMARK  163  A    between atoms: _410  and  _411
REMARK  164  A    between atoms: _420  and  _422
REMARK  165  A    between atoms: _422  and  _423
REMARK  166  A    between atoms: _422  and  _425
REMARK  167  A    between atoms: _425  and  _426
REMARK  168  A    between atoms: _429  and  _431
REMARK  169  A    between atoms: _431  and  _432
REMARK  170  A    between atoms: _431  and  _434
REMARK  171  A    between atoms: _434  and  _435
REMARK  172  A    between atoms: _438  and  _440
REMARK  173  A    between atoms: _440  and  _441
REMARK  174  A    between atoms: _440  and  _443
REMARK  175  A    between atoms: _443  and  _444
REMARK  176  A    between atoms: _447  and  _449
REMARK  177  A    between atoms: _449  and  _450
REMARK  178  A    between atoms: _449  and  _452
REMARK  179  A    between atoms: _452  and  _453
REMARK  180  A    between atoms: _456  and  _458
REMARK  181  A    between atoms: _458  and  _459
REMARK  182  A    between atoms: _458  and  _461
REMARK  183  A    between atoms: _461  and  _462
REMARK  184  A    between atoms: _462  and  _463
REMARK  185  A    between atoms: _463  and  _464
REMARK  186  A    between atoms: _473  and  _475
REMARK  187  A    between atoms: _475  and  _476
REMARK  188  A    between atoms: _475  and  _478
REMARK  189  A    between atoms: _481  and  _483
REMARK  190  A    between atoms: _483  and  _484
REMARK  191  A    between atoms: _483  and  _486
REMARK  192  A    between atoms: _486  and  _487
REMARK  193  A    between atoms: _492  and  _493
REMARK  194  A    between atoms: _495  and  _497
REMARK  195  A    between atoms: _497  and  _498
REMARK  196  A    between atoms: _497  and  _500
REMARK  197  A    between atoms: _500  and  _501
REMARK  198  A    between atoms: _503  and  _505
REMARK  199  A    between atoms: _505  and  _506
REMARK  200  A    between atoms: _505  and  _508
REMARK  201  A    between atoms: _508  and  _509
REMARK  202  A    between atoms: _514  and  _516
REMARK  203  A    between atoms: _516  and  _517
REMARK  204  A    between atoms: _516  and  _519
REMARK  205  A    between atoms: _519  and  _520
REMARK  206  A    between atoms: _522  and  _524
REMARK  207  A    between atoms: _524  and  _525
REMARK  208  A    between atoms: _524  and  _527
REMARK  209  A    between atoms: _527  and  _528
REMARK  210  A    between atoms: _528  and  _529
REMARK  211  A    between atoms: _532  and  _534
REMARK  212  A    between atoms: _534  and  _535
REMARK  213  A    between atoms: _534  and  _537
REMARK  214  A    between atoms: _537  and  _538
REMARK  215  A    between atoms: _543  and  _544
REMARK  216  A    between atoms: _546  and  _548
REMARK  217  A    between atoms: _548  and  _549
REMARK  218  A    between atoms: _552  and  _554
REMARK  219  A    between atoms: _554  and  _555
REMARK  220  A    between atoms: _554  and  _557
REMARK  221  A    between atoms: _557  and  _558
REMARK  222  A    between atoms: _562  and  _563
REMARK  223  A    between atoms: _568  and  _570
REMARK  224  A    between atoms: _570  and  _571
REMARK  225  A    between atoms: _570  and  _573
REMARK  226  A    between atoms: _573  and  _574
REMARK  227  A    between atoms: _577  and  _579
REMARK  228  A    between atoms: _579  and  _580
REMARK  229  A    between atoms: _579  and  _582
REMARK  230  A    between atoms: _582  and  _583
REMARK  231  A    between atoms: _583  and  _584
REMARK  232  A    between atoms: _589  and  _591
REMARK  233  A    between atoms: _591  and  _592
REMARK  234  A    between atoms: _591  and  _594
REMARK  235  A    between atoms: _594  and  _595
REMARK  236  A    between atoms: _598  and  _600
REMARK  237  A    between atoms: _600  and  _601
REMARK  238  A    between atoms: _600  and  _603
REMARK  239  A    between atoms: _603  and  _604
REMARK  240  A    between atoms: _607  and  _609
REMARK  241  A    between atoms: _609  and  _610
REMARK  242  A    between atoms: _609  and  _612
REMARK  243  A    between atoms: _612  and  _613
REMARK                            x       y       z     vdW  Elec       q    Type
REMARK                         _______ _______ _______ _____ _____    ______ ____
ROOT
ATOM      1  CA  TYR A   6      12.653  19.828  24.200  0.00  0.00    +0.153 C 
ENDROOT
BRANCH   1   2
ATOM      2  C   TYR A   6      11.206  20.122  23.821  0.00  0.00    +0.241 C 
ATOM      3  N   TYR A   7      10.410  20.492  24.812  0.00  0.00    -0.297 N 
ATOM      4  H   TYR A   7      10.777  20.531  25.784  0.00  0.00    +0.150 HD
ATOM      5  O   TYR A   6      10.814  20.004  22.653  0.00  0.00    -0.273 OA
BRANCH   3   6
ATOM      6  CA  TYR A   7       9.030  20.842  24.547  0.00  0.00    +0.153 C 
BRANCH   6   7
ATOM      7  C   TYR A   7       8.939  22.182  23.787  0.00  0.00    +0.241 C 
ATOM      8  N   ILE A   8       9.549  23.227  24.354  0.00  0.00    -0.297 N 
ATOM      9  H   ILE A   8      10.127  23.069  25.204  0.00  0.00    +0.150 HD
ATOM     10  O   TYR A   7       8.349  22.252  22.701  0.00  0.00    -0.273 OA
BRANCH   8  11
ATOM     11  CA  ILE A   8       9.434  24.583  23.825  0.00  0.00    +0.149 C 
BRANCH  11  12
ATOM     12  C   ILE A   8      10.034  24.758  22.440  0.00  0.00    +0.241 C 
ATOM     13  N   GLY A   9      11.220  24.187  22.248  0.00  0.00    -0.295 N 
ATOM     14  H   GLY A   9      11.618  23.579  22.992  0.00  0.00    +0.150 HD
ATOM     15  O   ILE A   8       9.427  25.398  21.564  0.00  0.00    -0.273 OA
BRANCH  13  16
ATOM     16  CA  GLY A   9      11.971  24.393  21.023  0.00  0.00    +0.176 C 
BRANCH  16  17
ATOM     17  C   GLY A   9      11.761  23.299  19.997  0.00  0.00    +0.243 C 
ATOM     18  N   TYR A  10      10.952  22.303  20.313  0.00  0.00    -0.297 N 
ATOM     19  H   TYR A  10      10.446  22.294  21.222  0.00  0.00    +0.150 HD
ATOM     20  O   GLY A   9      12.301  23.357  18.910  0.00  0.00    -0.273 OA
BRANCH  18  21
ATOM     21  CA  TYR A  10      10.788  21.221  19.357  0.00  0.00    +0.153 C 
BRANCH  21  22
ATOM     22  C   TYR A  10       9.379  20.616  19.280  0.00  0.00    +0.241 C 
ATOM     23  N   LEU A  11       8.969  19.882  20.322  0.00  0.00    -0.298 N 
ATOM     24  H   LEU A  11       9.593  19.785  21.148  0.00  0.00    +0.150 HD
ATOM     25  O   TYR A  10       8.691  20.811  18.273  0.00  0.00    -0.273 OA
BRANCH  23  26
ATOM     26  CA  LEU A  11       7.663  19.209  20.333  0.00  0.00    +0.137 C 
BRANCH  26  27
ATOM     27  C   LEU A  11       6.447  20.135  20.140  0.00  0.00    +0.227 C 
ATOM     28  O   LEU A  11       5.494  19.798  19.422  0.00  0.00    -0.286 OA
ENDBRANCH  26  27
BRANCH  26  29
ATOM     29  CB  LEU A  11       7.470  18.429  21.623  0.00  0.00    +0.028 C 
BRANCH  29  30
ATOM     30  CG  LEU A  11       8.355  17.219  21.916  0.00  0.00    +0.002 C 
ATOM     31  CD2 LEU A  11       7.890  16.622  23.251  0.00  0.00    +0.000 C 
ATOM     32  CD1 LEU A  11       8.280  16.193  20.788  0.00  0.00    +0.000 C 
ENDBRANCH  29  30
ENDBRANCH  26  29
ENDBRANCH  23  26
ENDBRANCH  21  22
BRANCH  21  33
ATOM     33  CB  TYR A  10      11.843  20.135  19.592  0.00  0.00    +0.055 C 
BRANCH  33  34
ATOM     34  CG  TYR A  10      11.694  18.959  18.660  0.00  0.00    -0.020 A 
ATOM     35  CD2 TYR A  10      11.345  17.702  19.144  0.00  0.00    -0.001 A 
ATOM     36  CE2 TYR A  10      11.210  16.622  18.296  0.00  0.00    +0.036 A 
ATOM     37  CZ  TYR A  10      11.435  16.795  16.947  0.00  0.00    +0.134 A 
ATOM     38  CE1 TYR A  10      11.781  18.036  16.444  0.00  0.00    +0.036 A 
ATOM     39  CD1 TYR A  10      11.912  19.102  17.298  0.00  0.00    -0.001 A 
BRANCH  37  40
ATOM     40  OH  TYR A  10      11.311  15.731  16.096  0.00  0.00    -0.506 OA
ATOM     41  HH  TYR A  10      11.951  15.023  16.359  0.00  0.00    +0.292 HD
ENDBRANCH  37  40
ENDBRANCH  33  34
ENDBRANCH  21  33
ENDBRANCH  18  21
ENDBRANCH  16  17
ENDBRANCH  13  16
ENDBRANCH  11  12
BRANCH  11  42
ATOM     42  CB  ILE A   8      10.110  25.614  24.765  0.00  0.00    +0.027 C 
ATOM     43  CG2 ILE A   8      10.216  26.977  24.082  0.00  0.00    +0.002 C 
BRANCH  42  44
ATOM     44  CG1 ILE A   8       9.335  25.721  26.080  0.00  0.00    +0.002 C 
ATOM     45  CD1 ILE A   8       7.873  26.144  25.910  0.00  0.00    +0.000 C 
ENDBRANCH  42  44
ENDBRANCH  11  42
ENDBRANCH   8  11
ENDBRANCH   6   7
BRANCH   6  46
ATOM     46  CB  TYR A   7       8.246  20.910  25.855  0.00  0.00    +0.055 C 
BRANCH  46  47
ATOM     47  CG  TYR A   7       6.837  21.381  25.650  0.00  0.00    -0.020 A 
ATOM     48  CD2 TYR A   7       6.463  22.684  25.960  0.00  0.00    -0.001 A 
ATOM     49  CE2 TYR A   7       5.160  23.119  25.768  0.00  0.00    +0.036 A 
ATOM     50  CZ  TYR A   7       4.214  22.238  25.255  0.00  0.00    +0.134 A 
ATOM     51  CE1 TYR A   7       4.566  20.946  24.945  0.00  0.00    +0.036 A 
ATOM     52  CD1 TYR A   7       5.869  20.520  25.143  0.00  0.00    -0.001 A 
BRANCH  50  53
ATOM     53  OH  TYR A   7       2.908  22.650  25.052  0.00  0.00    -0.506 OA
ATOM     54  HH  TYR A   7       2.817  23.598  25.322  0.00  0.00    +0.292 HD
ENDBRANCH  50  53
ENDBRANCH  46  47
ENDBRANCH   6  46
ENDBRANCH   3   6
ENDBRANCH   1   2
BRANCH   1  56
ATOM     55  C   SER A   5      13.331  22.070  24.852  0.00  0.00    +0.243 C 
ATOM     56  N   TYR A   6      13.123  20.800  25.166  0.00  0.00    -0.297 N 
ATOM     57  H   TYR A   6      13.304  20.489  26.142  0.00  0.00    +0.150 HD
ATOM     58  O   SER A   5      13.097  22.538  23.730  0.00  0.00    -0.273 OA
BRANCH  55  59
ATOM     59  CA  SER A   5      13.907  22.930  25.976  0.00  0.00    +0.178 C 
BRANCH  59  61
ATOM     60  C   TRP A   4      12.073  22.738  27.573  0.00  0.00    +0.241 C 
ATOM     61  N   SER A   5      13.359  22.598  27.295  0.00  0.00    -0.295 N 
ATOM     62  H   SER A   5      14.000  22.242  28.033  0.00  0.00    +0.150 HD
ATOM     63  O   TRP A   4      11.248  23.140  26.762  0.00  0.00    -0.273 OA
BRANCH  60  64
ATOM     64  CA  TRP A   4      11.649  22.321  28.955  0.00  0.00    +0.153 C 
BRANCH  64  66
ATOM     65  C   ALA A   3      12.045  19.951  28.685  0.00  0.00    +0.241 C 
ATOM     66  N   TRP A   4      12.280  21.068  29.357  0.00  0.00    -0.297 N 
ATOM     67  H   TRP A   4      12.919  21.052  30.177  0.00  0.00    +0.150 HD
ATOM     68  O   ALA A   3      11.313  19.910  27.703  0.00  0.00    -0.273 OA
BRANCH  65  69
ATOM     69  CA  ALA A   3      12.783  18.701  29.155  0.00  0.00    +0.149 C 
ATOM     70  CB  ALA A   3      12.083  18.053  30.359  0.00  0.00    +0.031 C 
BRANCH  69  72
ATOM     71  C   LEU A   2      15.011  19.341  28.499  0.00  0.00    +0.241 C 
ATOM     72  N   ALA A   3      14.147  19.070  29.477  0.00  0.00    -0.297 N 
ATOM     73  H   ALA A   3      14.451  19.123  30.470  0.00  0.00    +0.150 HD
ATOM     74  O   LEU A   2      14.696  19.325  27.302  0.00  0.00    -0.273 OA
BRANCH  71  75
ATOM     75  CA  LEU A   2      16.451  19.647  28.908  0.00  0.00    +0.149 C 
BRANCH  75  77
ATOM     76  C   GLY A   1      16.028  21.718  30.124  0.00  0.00    +0.240 C 
ATOM     77  N   LEU A   2      16.542  20.487  30.103  0.00  0.00    -0.297 N 
ATOM     78  H   LEU A   2      17.016  20.117  30.952  0.00  0.00    +0.150 HD
ATOM     79  O   GLY A   1      15.451  22.223  29.155  0.00  0.00    -0.274 OA
BRANCH  76  80
ATOM     80  CA  GLY A   1      16.170  22.514  31.409  0.00  0.00    +0.169 C 
BRANCH  80  81
ATOM     81  N   GLY A   1      15.984  21.749  32.624  0.00  0.00    -0.236 NA
ATOM     82  H   GLY A   1      16.749  21.714  33.328  0.00  0.00    +0.142 HD
ENDBRANCH  80  81
ENDBRANCH  76  80
ENDBRANCH  75  77
BRANCH  75  83
ATOM     83  CB  LEU A   2      17.208  18.321  29.101  0.00  0.00    +0.029 C 
BRANCH  83  84
ATOM     84  CG  LEU A   2      18.735  18.379  29.308  0.00  0.00    +0.002 C 
ATOM     85  CD2 LEU A   2      19.269  16.978  29.496  0.00  0.00    +0.000 C 
ATOM     86  CD1 LEU A   2      19.417  19.031  28.134  0.00  0.00    +0.000 C 
ENDBRANCH  83  84
ENDBRANCH  75  83
ENDBRANCH  71  75
ENDBRANCH  69  72
ENDBRANCH  65  69
ENDBRANCH  64  66
BRANCH  64  87
ATOM     87  CB  TRP A   4      11.923  23.425  29.980  0.00  0.00    +0.057 C 
BRANCH  87  88
ATOM     88  CG  TRP A   4      10.854  23.431  31.010  0.00  0.00    -0.002 A 
ATOM     89  CD1 TRP A   4      10.949  22.996  32.293  0.00  0.00    +0.068 A 
ATOM     90  NE1 TRP A   4       9.744  23.134  32.930  0.00  0.00    -0.352 N 
ATOM     91  HE1 TRP A   4       9.552  22.886  33.922  0.00  0.00    +0.166 HD
ATOM     92  CE2 TRP A   4       8.830  23.654  32.045  0.00  0.00    +0.056 A 
ATOM     93  CZ2 TRP A   4       7.476  23.964  32.220  0.00  0.00    +0.017 A 
ATOM     94  CH2 TRP A   4       6.804  24.471  31.139  0.00  0.00    +0.001 A 
ATOM     95  CZ3 TRP A   4       7.438  24.671  29.905  0.00  0.00    +0.000 A 
ATOM     96  CE3 TRP A   4       8.782  24.366  29.731  0.00  0.00    +0.001 A 
ATOM     97  CD2 TRP A   4       9.497  23.839  30.820  0.00  0.00    +0.013 A 
ENDBRANCH  87  88
ENDBRANCH  64  87
ENDBRANCH  60  64
ENDBRANCH  59  61
BRANCH  59  98
ATOM     98  CB  SER A   5      15.424  22.766  25.987  0.00  0.00    +0.166 C 
BRANCH  98  99
ATOM     99  OG  SER A   5      15.971  23.356  24.833  0.00  0.00    -0.380 OA
ATOM    100  H   SER A   5      15.598  22.914  24.029  0.00  0.00    +0.211 HD
ENDBRANCH  98  99
ENDBRANCH  59  98
ENDBRANCH  55  59
ENDBRANCH   1  56
BRANCH   1 101
ATOM    101  CB  TYR A   6      12.787  18.440  24.818  0.00  0.00    +0.055 C 
BRANCH 101 102
ATOM    102  CG  TYR A   6      12.483  17.291  23.909  0.00  0.00    -0.020 A 
ATOM    103  CD2 TYR A   6      11.601  16.300  24.317  0.00  0.00    -0.001 A 
ATOM    104  CE2 TYR A   6      11.321  15.221  23.520  0.00  0.00    +0.036 A 
ATOM    105  CZ  TYR A   6      11.930  15.093  22.295  0.00  0.00    +0.134 A 
ATOM    106  CE1 TYR A   6      12.821  16.065  21.847  0.00  0.00    +0.036 A 
ATOM    107  CD1 TYR A   6      13.097  17.161  22.668  0.00  0.00    -0.001 A 
BRANCH 105 108
ATOM    108  OH  TYR A   6      11.598  13.989  21.533  0.00  0.00    -0.506 OA
ATOM    109  HH  TYR A   6      12.101  14.014  20.681  0.00  0.00    +0.292 HD
ENDBRANCH 105 108
ENDBRANCH 101 102
ENDBRANCH   1 101
TORSDOF 41
REMARK  Name = ../refined-set-2016/4f5y/4f5y_pocket.pdb
REMARK  243 active torsions:
REMARK  status: ('A' for Active; 'I' for Inactive)
REMARK    1  A    between atoms: _1  and  _3
REMARK    2  A    between atoms: _3  and  _4
REMARK    3  A    between atoms: _6  and  _8
REMARK    4  A    between atoms: _8  and  _9
REMARK    5  A    between atoms: _8  and  _11
REMARK    6  A    between atoms: _11  and  _12
REMARK    7  A    between atoms: _15  and  _17
REMARK    8  A    between atoms: _17  and  _18
REMARK    9  A    between atoms: _21  and  _23
REMARK   10  A    between atoms: _23  and  _24
REMARK   11  A    between atoms: _23  and  _26
REMARK   12  A    between atoms: _26  and  _27
REMARK   13  A    between atoms: _37  and  _39
REMARK   14  A    between atoms: _39  and  _40
REMARK   15  A    between atoms: _39  and  _42
REMARK   16  A    between atoms: _42  and  _43
REMARK   17  A    between atoms: _45  and  _47
REMARK   18  A    between atoms: _47  and  _48
REMARK   19  A    between atoms: _47  and  _50
REMARK   20  A    between atoms: _50  and  _51
REMARK   21  A    between atoms: _56  and  _57
REMARK   22  A    between atoms: _59  and  _61
REMARK   23  A    between atoms: _61  and  _62
REMARK   24  A    between atoms: _61  and  _64
REMARK   25  A    between atoms: _64  and  _65
REMARK   26  A    between atoms: _70  and  _71
REMARK   27  A    between atoms: _73  and  _75
REMARK   28  A    between atoms: _75  and  _76
REMARK   29  A    between atoms: _75  and  _78
REMARK   30  A    between atoms: _78  and  _79
REMARK   31  A    between atoms: _82  and  _84
REMARK   32  A    between atoms: _84  and  _85
REMARK   33  A    between atoms: _87  and  _89
REMARK   34  A    between atoms: _89  and  _90
REMARK   35  A    between atoms: _89  and  _92
REMARK   36  A    between atoms: _92  and  _93
REMARK   37  A    between atoms: _98  and  _99
REMARK   38  A    between atoms: _101  and  _103
REMARK   39  A    between atoms: _103  and  _104
REMARK   40  A    between atoms: _103  and  _106
REMARK   41  A    between atoms: _106  and  _107
REMARK   42  A    between atoms: _110  and  _112
REMARK   43  A    between atoms: _112  and  _113
REMARK   44  A    between atoms: _112  and  _115
REMARK   45  A    between atoms: _115  and  _116
REMARK   46  A    between atoms: _119  and  _121
REMARK   47  A    between atoms: _121  and  _122
REMARK   48  A    between atoms: _121  and  _124
REMARK   49  A    between atoms: _124  and  _125
REMARK   50  A    between atoms: _128  and  _130
REMARK   51  A    between atoms: _130  and  _131
REMARK   52  A    between atoms: _130  and  _133
REMARK   53  A    between atoms: _133  and  _134
REMARK   54  A    between atoms: _137  and  _139
REMARK   55  A    between atoms: _139  and  _140
REMARK   56  A    between atoms: _139  and  _142
REMARK   57  A    between atoms: _142  and  _143
REMARK   58  A    between atoms: _143  and  _144
REMARK   59  A    between atoms: _144  and  _145
REMARK   60  A    between atoms: _145  and  _146
REMARK   61  A    between atoms: _150  and  _152
REMARK   62  A    between atoms: _152  and  _153
REMARK   63  A    between atoms: _152  and  _155
REMARK   64  A    between atoms: _155  and  _156
REMARK   65  A    between atoms: _159  and  _161
REMARK   66  A    between atoms: _161  and  _162
REMARK   67  A    between atoms: _161  and  _164
REMARK   68  A    between atoms: _164  and  _165
REMARK   69  A    between atoms: _165  and  _166
REMARK   70  A    between atoms: _166  and  _167
REMARK   71  A    between atoms: _176  and  _178
REMARK   72  A    between atoms: _178  and  _179
REMARK   73  A    between atoms: _178  and  _181
REMARK   74  A    between atoms: _184  and  _186
REMARK   75  A    between atoms: _186  and  _187
REMARK   76  A    between atoms: _186  and  _189
REMARK   77  A    between atoms: _189  and  _190
REMARK   78  A    between atoms: _195  and  _196
REMARK   79  A    between atoms: _198  and  _200
REMARK   80  A    between atoms: _200  and  _201
REMARK   81  A    between atoms: _200  and  _203
REMARK   82  A    between atoms: _203  and  _204
REMARK   83  A    between atoms: _206  and  _208
REMARK   84  A    between atoms: _208  and  _209
REMARK   85  A    between atoms: _208  and  _211
REMARK   86  A    between atoms: _211  and  _212
REMARK   87  A    between atoms: _212  and  _213
REMARK   88  A    between atoms: _216  and  _218
REMARK   89  A    between atoms: _218  and  _219
REMARK   90  A    between atoms: _218  and  _221
REMARK   91  A    between atoms: _221  and  _222
REMARK   92  A    between atoms: _227  and  _228
REMARK   93  A    between atoms: _230  and  _232
REMARK   94  A    between atoms: _232  and  _233
REMARK   95  A    between atoms: _236  and  _238
REMARK   96  A    between atoms: _238  and  _239
REMARK   97  A    between atoms: _238  and  _241
REMARK   98  A    between atoms: _241  and  _242
REMARK   99  A    between atoms: _246  and  _247
REMARK  100  A    between atoms: _252  and  _254
REMARK  101  A    between atoms: _254  and  _255
REMARK  102  A    between atoms: _254  and  _257
REMARK  103  A    between atoms: _257  and  _258
REMARK  104  A    between atoms: _261  and  _263
REMARK  105  A    between atoms: _263  and  _264
REMARK  106  A    between atoms: _263  and  _266
REMARK  107  A    between atoms: _266  and  _267
REMARK  108  A    between atoms: _267  and  _268
REMARK  109  A    between atoms: _273  and  _275
REMARK  110  A    between atoms: _275  and  _276
REMARK  111  A    between atoms: _275  and  _278
REMARK  112  A    between atoms: _278  and  _279
REMARK  113  A    between atoms: _282  and  _284
REMARK  114  A    between atoms: _284  and  _285
REMARK  115  A    between atoms: _284  and  _287
REMARK  116  A    between atoms: _287  and  _288
REMARK  117  A    between atoms: _294  and  _296
REMARK  118  A    between atoms: _296  and  _297
REMARK  119  A    between atoms: _299  and  _301
REMARK  120  A    between atoms: _301  and  _302
REMARK  121  A    between atoms: _301  and  _304
REMARK  122  A    between atoms: _304  and  _305
REMARK  123  A    between atoms: _308  and  _310
REMARK  124  A    between atoms: _310  and  _311
REMARK  125  A    between atoms: _314  and  _316
REMARK  126  A    between atoms: _316  and  _317
REMARK  127  A    between atoms: _316  and  _319
REMARK  128  A    between atoms: _319  and  _320
REMARK  129  A    between atoms: _330  and  _332
REMARK  130  A    between atoms: _332  and  _333
REMARK  131  A    between atoms: _332  and  _335
REMARK  132  A    between atoms: _335  and  _336
REMARK  133  A    between atoms: _338  and  _340
REMARK  134  A    between atoms: _340  and  _341
REMARK  135  A    between atoms: _340  and  _343
REMARK  136  A    between atoms: _343  and  _344
REMARK  137  A    between atoms: _349  and  _350
REMARK  138  A    between atoms: _352  and  _354
REMARK  139  A    between atoms: _354  and  _355
REMARK  140  A    between atoms: _354  and  _357
REMARK  141  A    between atoms: _357  and  _358
REMARK  142  A    between atoms: _363  and  _364
REMARK  143  A    between atoms: _366  and  _368
REMARK  144  A    between atoms: _368  and  _369
REMARK  145  A    between atoms: _368  and  _371
REMARK  146  A    between atoms: _371  and  _372
REMARK  147  A    between atoms: _375  and  _377
REMARK  148  A    between atoms: _377  and  _378
REMARK  149  A    between atoms: _380  and  _382
REMARK  150  A    between atoms: _382  and  _383
REMARK  151  A    between atoms: _382  and  _385
REMARK  152  A    between atoms: _385  and  _386
REMARK  153  A    between atoms: _391  and  _392
REMARK  154  A    between atoms: _394  and  _396
REMARK  155  A    between atoms: _396  and  _397
REMARK  156  A    between atoms: _396  and  _399
REMARK  157  A    between atoms: _399  and  _400
REMARK  158  A    between atoms: _403  and  _405
REMARK  159  A    between atoms: _405  and  _406
REMARK  160  A    between atoms: _405  and  _408
REMARK  161  A    between atoms: _408  and  _409
REMARK  162  A    between atoms: _409  and  _410
REMARK  163  A    between atoms: _410  and  _411
REMARK  164  A    between atoms: _420  and  _422
REMARK  165  A    between atoms: _422  and  _423
REMARK  166  A    between atoms: _422  and  _425
REMARK  167  A    between atoms: _425  and  _426
REMARK  168  A    between atoms: _429  and  _431
REMARK  169  A    between atoms: _431  and  _432
REMARK  170  A    between atoms: _431  and  _434
REMARK  171  A    between atoms: _434  and  _435
REMARK  172  A    between atoms: _438  and  _440
REMARK  173  A    between atoms: _440  and  _441
REMARK  174  A    between atoms: _440  and  _443
REMARK  175  A    between atoms: _443  and  _444
REMARK  176  A    between atoms: _447  and  _449
REMARK  177  A    between atoms: _449  and  _450
REMARK  178  A    between atoms: _449  and  _452
REMARK  179  A    between atoms: _452  and  _453
REMARK  180  A    between atoms: _456  and  _458
REMARK  181  A    between atoms: _458  and  _459
REMARK  182  A    between atoms: _458  and  _461
REMARK  183  A    between atoms: _461  and  _462
REMARK  184  A    between atoms: _462  and  _463
REMARK  185  A    between atoms: _463  and  _464
REMARK  186  A    between atoms: _473  and  _475
REMARK  187  A    between atoms: _475  and  _476
REMARK  188  A    between atoms: _475  and  _478
REMARK  189  A    between atoms: _481  and  _483
REMARK  190  A    between atoms: _483  and  _484
REMARK  191  A    between atoms: _483  and  _486
REMARK  192  A    between atoms: _486  and  _487
REMARK  193  A    between atoms: _492  and  _493
REMARK  194  A    between atoms: _495  and  _497
REMARK  195  A    between atoms: _497  and  _498
REMARK  196  A    between atoms: _497  and  _500
REMARK  197  A    between atoms: _500  and  _501
REMARK  198  A    between atoms: _503  and  _505
REMARK  199  A    between atoms: _505  and  _506
REMARK  200  A    between atoms: _505  and  _508
REMARK  201  A    between atoms: _508  and  _509
REMARK  202  A    between atoms: _514  and  _516
REMARK  203  A    between atoms: _516  and  _517
REMARK  204  A    between atoms: _516  and  _519
REMARK  205  A    between atoms: _519  and  _520
REMARK  206  A    between atoms: _522  and  _524
REMARK  207  A    between atoms: _524  and  _525
REMARK  208  A    between atoms: _524  and  _527
REMARK  209  A    between atoms: _527  and  _528
REMARK  210  A    between atoms: _528  and  _529
REMARK  211  A    between atoms: _532  and  _534
REMARK  212  A    between atoms: _534  and  _535
REMARK  213  A    between atoms: _534  and  _537
REMARK  214  A    between atoms: _537  and  _538
REMARK  215  A    between atoms: _543  and  _544
REMARK  216  A    between atoms: _546  and  _548
REMARK  217  A    between atoms: _548  and  _549
REMARK  218  A    between atoms: _552  and  _554
REMARK  219  A    between atoms: _554  and  _555
REMARK  220  A    between atoms: _554  and  _557
REMARK  221  A    between atoms: _557  and  _558
REMARK  222  A    between atoms: _562  and  _563
REMARK  223  A    between atoms: _568  and  _570
REMARK  224  A    between atoms: _570  and  _571
REMARK  225  A    between atoms: _570  and  _573
REMARK  226  A    between atoms: _573  and  _574
REMARK  227  A    between atoms: _577  and  _579
REMARK  228  A    between atoms: _579  and  _580
REMARK  229  A    between atoms: _579  and  _582
REMARK  230  A    between atoms: _582  and  _583
REMARK  231  A    between atoms: _583  and  _584
REMARK  232  A    between atoms: _589  and  _591
REMARK  233  A    between atoms: _591  and  _592
REMARK  234  A    between atoms: _591  and  _594
REMARK  235  A    between atoms: _594  and  _595
REMARK  236  A    between atoms: _598  and  _600
REMARK  237  A    between atoms: _600  and  _601
REMARK  238  A    between atoms: _600  and  _603
REMARK  239  A    between atoms: _603  and  _604
REMARK  240  A    between atoms: _607  and  _609
REMARK  241  A    between atoms: _609  and  _610
REMARK  242  A    between atoms: _609  and  _612
REMARK  243  A    between atoms: _612  and  _613
REMARK                            x       y       z     vdW  Elec       q    Type
REMARK                         _______ _______ _______ _____ _____    ______ ____
ROOT
ATOM      1  C   LEU A   1       6.026  22.243  16.117  0.00  0.00    +0.238 C 
ATOM      2  N   ILE A   2       6.333  20.968  16.361  0.00  0.00    -0.298 N 
ATOM      3  H   ILE A   2       6.731  20.701  17.284  0.00  0.00    +0.150 HD
ATOM      4  O   LEU A   1       5.405  22.590  15.114  0.00  0.00    -0.274 OA
ENDROOT
BRANCH   1   5
ATOM      5  CA  LEU A   1       6.467  23.282  17.145  0.00  0.00    +0.145 C 
BRANCH   5   6
ATOM      6  N   LEU A   1       6.419  22.760  18.498  0.00  0.00    -0.238 NA
ATOM      7  H   LEU A   1       7.295  22.398  18.925  0.00  0.00    +0.142 HD
ENDBRANCH   5   6
BRANCH   5   8
ATOM      8  CB  LEU A   1       7.896  23.775  16.823  0.00  0.00    +0.026 C 
BRANCH   8   9
ATOM      9  CG  LEU A   1       8.339  25.233  17.085  0.00  0.00    +0.002 C 
ATOM     10  CD2 LEU A   1       7.382  25.955  18.032  0.00  0.00    +0.000 C 
ATOM     11  CD1 LEU A   1       9.803  25.340  17.586  0.00  0.00    +0.000 C 
ENDBRANCH   8   9
ENDBRANCH   5   8
ENDBRANCH   1   5
BRANCH   2  12
ATOM     12  CA  ILE A   2       6.115  19.939  15.339  0.00  0.00    +0.137 C 
BRANCH  12  13
ATOM     13  C   ILE A   2       4.883  19.056  15.529  0.00  0.00    +0.227 C 
ATOM     14  O   ILE A   2       4.417  18.438  14.575  0.00  0.00    -0.286 OA
ENDBRANCH  12  13
BRANCH  12  15
ATOM     15  CB  ILE A   2       7.363  19.036  15.142  0.00  0.00    +0.026 C 
ATOM     16  CG2 ILE A   2       8.552  19.873  14.706  0.00  0.00    +0.002 C 
BRANCH  15  17
ATOM     17  CG1 ILE A   2       7.654  18.219  16.407  0.00  0.00    +0.002 C 
ATOM     18  CD1 ILE A   2       7.332  16.749  16.275  0.00  0.00    +0.000 C 
ENDBRANCH  15  17
ENDBRANCH  12  15
ENDBRANCH   2  12
TORSDOF 8
REMARK  Name = ../refined-set-2016/4f5y/4f5y_pocket.pdb
REMARK  243 active torsions:
REMARK  status: ('A' for Active; 'I' for Inactive)
REMARK    1  A    between atoms: _1  and  _3
REMARK    2  A    between atoms: _3  and  _4
REMARK    3  A    between atoms: _6  and  _8
REMARK    4  A    between atoms: _8  and  _9
REMARK    5  A    between atoms: _8  and  _11
REMARK    6  A    between atoms: _11  and  _12
REMARK    7  A    between atoms: _15  and  _17
REMARK    8  A    between atoms: _17  and  _18
REMARK    9  A    between atoms: _21  and  _23
REMARK   10  A    between atoms: _23  and  _24
REMARK   11  A    between atoms: _23  and  _26
REMARK   12  A    between atoms: _26  and  _27
REMARK   13  A    between atoms: _37  and  _39
REMARK   14  A    between atoms: _39  and  _40
REMARK   15  A    between atoms: _39  and  _42
REMARK   16  A    between atoms: _42  and  _43
REMARK   17  A    between atoms: _45  and  _47
REMARK   18  A    between atoms: _47  and  _48
REMARK   19  A    between atoms: _47  and  _50
REMARK   20  A    between atoms: _50  and  _51
REMARK   21  A    between atoms: _56  and  _57
REMARK   22  A    between atoms: _59  and  _61
REMARK   23  A    between atoms: _61  and  _62
REMARK   24  A    between atoms: _61  and  _64
REMARK   25  A    between atoms: _64  and  _65
REMARK   26  A    between atoms: _70  and  _71
REMARK   27  A    between atoms: _73  and  _75
REMARK   28  A    between atoms: _75  and  _76
REMARK   29  A    between atoms: _75  and  _78
REMARK   30  A    between atoms: _78  and  _79
REMARK   31  A    between atoms: _82  and  _84
REMARK   32  A    between atoms: _84  and  _85
REMARK   33  A    between atoms: _87  and  _89
REMARK   34  A    between atoms: _89  and  _90
REMARK   35  A    between atoms: _89  and  _92
REMARK   36  A    between atoms: _92  and  _93
REMARK   37  A    between atoms: _98  and  _99
REMARK   38  A    between atoms: _101  and  _103
REMARK   39  A    between atoms: _103  and  _104
REMARK   40  A    between atoms: _103  and  _106
REMARK   41  A    between atoms: _106  and  _107
REMARK   42  A    between atoms: _110  and  _112
REMARK   43  A    between atoms: _112  and  _113
REMARK   44  A    between atoms: _112  and  _115
REMARK   45  A    between atoms: _115  and  _116
REMARK   46  A    between atoms: _119  and  _121
REMARK   47  A    between atoms: _121  and  _122
REMARK   48  A    between atoms: _121  and  _124
REMARK   49  A    between atoms: _124  and  _125
REMARK   50  A    between atoms: _128  and  _130
REMARK   51  A    between atoms: _130  and  _131
REMARK   52  A    between atoms: _130  and  _133
REMARK   53  A    between atoms: _133  and  _134
REMARK   54  A    between atoms: _137  and  _139
REMARK   55  A    between atoms: _139  and  _140
REMARK   56  A    between atoms: _139  and  _142
REMARK   57  A    between atoms: _142  and  _143
REMARK   58  A    between atoms: _143  and  _144
REMARK   59  A    between atoms: _144  and  _145
REMARK   60  A    between atoms: _145  and  _146
REMARK   61  A    between atoms: _150  and  _152
REMARK   62  A    between atoms: _152  and  _153
REMARK   63  A    between atoms: _152  and  _155
REMARK   64  A    between atoms: _155  and  _156
REMARK   65  A    between atoms: _159  and  _161
REMARK   66  A    between atoms: _161  and  _162
REMARK   67  A    between atoms: _161  and  _164
REMARK   68  A    between atoms: _164  and  _165
REMARK   69  A    between atoms: _165  and  _166
REMARK   70  A    between atoms: _166  and  _167
REMARK   71  A    between atoms: _176  and  _178
REMARK   72  A    between atoms: _178  and  _179
REMARK   73  A    between atoms: _178  and  _181
REMARK   74  A    between atoms: _184  and  _186
REMARK   75  A    between atoms: _186  and  _187
REMARK   76  A    between atoms: _186  and  _189
REMARK   77  A    between atoms: _189  and  _190
REMARK   78  A    between atoms: _195  and  _196
REMARK   79  A    between atoms: _198  and  _200
REMARK   80  A    between atoms: _200  and  _201
REMARK   81  A    between atoms: _200  and  _203
REMARK   82  A    between atoms: _203  and  _204
REMARK   83  A    between atoms: _206  and  _208
REMARK   84  A    between atoms: _208  and  _209
REMARK   85  A    between atoms: _208  and  _211
REMARK   86  A    between atoms: _211  and  _212
REMARK   87  A    between atoms: _212  and  _213
REMARK   88  A    between atoms: _216  and  _218
REMARK   89  A    between atoms: _218  and  _219
REMARK   90  A    between atoms: _218  and  _221
REMARK   91  A    between atoms: _221  and  _222
REMARK   92  A    between atoms: _227  and  _228
REMARK   93  A    between atoms: _230  and  _232
REMARK   94  A    between atoms: _232  and  _233
REMARK   95  A    between atoms: _236  and  _238
REMARK   96  A    between atoms: _238  and  _239
REMARK   97  A    between atoms: _238  and  _241
REMARK   98  A    between atoms: _241  and  _242
REMARK   99  A    between atoms: _246  and  _247
REMARK  100  A    between atoms: _252  and  _254
REMARK  101  A    between atoms: _254  and  _255
REMARK  102  A    between atoms: _254  and  _257
REMARK  103  A    between atoms: _257  and  _258
REMARK  104  A    between atoms: _261  and  _263
REMARK  105  A    between atoms: _263  and  _264
REMARK  106  A    between atoms: _263  and  _266
REMARK  107  A    between atoms: _266  and  _267
REMARK  108  A    between atoms: _267  and  _268
REMARK  109  A    between atoms: _273  and  _275
REMARK  110  A    between atoms: _275  and  _276
REMARK  111  A    between atoms: _275  and  _278
REMARK  112  A    between atoms: _278  and  _279
REMARK  113  A    between atoms: _282  and  _284
REMARK  114  A    between atoms: _284  and  _285
REMARK  115  A    between atoms: _284  and  _287
REMARK  116  A    between atoms: _287  and  _288
REMARK  117  A    between atoms: _294  and  _296
REMARK  118  A    between atoms: _296  and  _297
REMARK  119  A    between atoms: _299  and  _301
REMARK  120  A    between atoms: _301  and  _302
REMARK  121  A    between atoms: _301  and  _304
REMARK  122  A    between atoms: _304  and  _305
REMARK  123  A    between atoms: _308  and  _310
REMARK  124  A    between atoms: _310  and  _311
REMARK  125  A    between atoms: _314  and  _316
REMARK  126  A    between atoms: _316  and  _317
REMARK  127  A    between atoms: _316  and  _319
REMARK  128  A    between atoms: _319  and  _320
REMARK  129  A    between atoms: _330  and  _332
REMARK  130  A    between atoms: _332  and  _333
REMARK  131  A    between atoms: _332  and  _335
REMARK  132  A    between atoms: _335  and  _336
REMARK  133  A    between atoms: _338  and  _340
REMARK  134  A    between atoms: _340  and  _341
REMARK  135  A    between atoms: _340  and  _343
REMARK  136  A    between atoms: _343  and  _344
REMARK  137  A    between atoms: _349  and  _350
REMARK  138  A    between atoms: _352  and  _354
REMARK  139  A    between atoms: _354  and  _355
REMARK  140  A    between atoms: _354  and  _357
REMARK  141  A    between atoms: _357  and  _358
REMARK  142  A    between atoms: _363  and  _364
REMARK  143  A    between atoms: _366  and  _368
REMARK  144  A    between atoms: _368  and  _369
REMARK  145  A    between atoms: _368  and  _371
REMARK  146  A    between atoms: _371  and  _372
REMARK  147  A    between atoms: _375  and  _377
REMARK  148  A    between atoms: _377  and  _378
REMARK  149  A    between atoms: _380  and  _382
REMARK  150  A    between atoms: _382  and  _383
REMARK  151  A    between atoms: _382  and  _385
REMARK  152  A    between atoms: _385  and  _386
REMARK  153  A    between atoms: _391  and  _392
REMARK  154  A    between atoms: _394  and  _396
REMARK  155  A    between atoms: _396  and  _397
REMARK  156  A    between atoms: _396  and  _399
REMARK  157  A    between atoms: _399  and  _400
REMARK  158  A    between atoms: _403  and  _405
REMARK  159  A    between atoms: _405  and  _406
REMARK  160  A    between atoms: _405  and  _408
REMARK  161  A    between atoms: _408  and  _409
REMARK  162  A    between atoms: _409  and  _410
REMARK  163  A    between atoms: _410  and  _411
REMARK  164  A    between atoms: _420  and  _422
REMARK  165  A    between atoms: _422  and  _423
REMARK  166  A    between atoms: _422  and  _425
REMARK  167  A    between atoms: _425  and  _426
REMARK  168  A    between atoms: _429  and  _431
REMARK  169  A    between atoms: _431  and  _432
REMARK  170  A    between atoms: _431  and  _434
REMARK  171  A    between atoms: _434  and  _435
REMARK  172  A    between atoms: _438  and  _440
REMARK  173  A    between atoms: _440  and  _441
REMARK  174  A    between atoms: _440  and  _443
REMARK  175  A    between atoms: _443  and  _444
REMARK  176  A    between atoms: _447  and  _449
REMARK  177  A    between atoms: _449  and  _450
REMARK  178  A    between atoms: _449  and  _452
REMARK  179  A    between atoms: _452  and  _453
REMARK  180  A    between atoms: _456  and  _458
REMARK  181  A    between atoms: _458  and  _459
REMARK  182  A    between atoms: _458  and  _461
REMARK  183  A    between atoms: _461  and  _462
REMARK  184  A    between atoms: _462  and  _463
REMARK  185  A    between atoms: _463  and  _464
REMARK  186  A    between atoms: _473  and  _475
REMARK  187  A    between atoms: _475  and  _476
REMARK  188  A    between atoms: _475  and  _478
REMARK  189  A    between atoms: _481  and  _483
REMARK  190  A    between atoms: _483  and  _484
REMARK  191  A    between atoms: _483  and  _486
REMARK  192  A    between atoms: _486  and  _487
REMARK  193  A    between atoms: _492  and  _493
REMARK  194  A    between atoms: _495  and  _497
REMARK  195  A    between atoms: _497  and  _498
REMARK  196  A    between atoms: _497  and  _500
REMARK  197  A    between atoms: _500  and  _501
REMARK  198  A    between atoms: _503  and  _505
REMARK  199  A    between atoms: _505  and  _506
REMARK  200  A    between atoms: _505  and  _508
REMARK  201  A    between atoms: _508  and  _509
REMARK  202  A    between atoms: _514  and  _516
REMARK  203  A    between atoms: _516  and  _517
REMARK  204  A    between atoms: _516  and  _519
REMARK  205  A    between atoms: _519  and  _520
REMARK  206  A    between atoms: _522  and  _524
REMARK  207  A    between atoms: _524  and  _525
REMARK  208  A    between atoms: _524  and  _527
REMARK  209  A    between atoms: _527  and  _528
REMARK  210  A    between atoms: _528  and  _529
REMARK  211  A    between atoms: _532  and  _534
REMARK  212  A    between atoms: _534  and  _535
REMARK  213  A    between atoms: _534  and  _537
REMARK  214  A    between atoms: _537  and  _538
REMARK  215  A    between atoms: _543  and  _544
REMARK  216  A    between atoms: _546  and  _548
REMARK  217  A    between atoms: _548  and  _549
REMARK  218  A    between atoms: _552  and  _554
REMARK  219  A    between atoms: _554  and  _555
REMARK  220  A    between atoms: _554  and  _557
REMARK  221  A    between atoms: _557  and  _558
REMARK  222  A    between atoms: _562  and  _563
REMARK  223  A    between atoms: _568  and  _570
REMARK  224  A    between atoms: _570  and  _571
REMARK  225  A    between atoms: _570  and  _573
REMARK  226  A    between atoms: _573  and  _574
REMARK  227  A    between atoms: _577  and  _579
REMARK  228  A    between atoms: _579  and  _580
REMARK  229  A    between atoms: _579  and  _582
REMARK  230  A    between atoms: _582  and  _583
REMARK  231  A    between atoms: _583  and  _584
REMARK  232  A    between atoms: _589  and  _591
REMARK  233  A    between atoms: _591  and  _592
REMARK  234  A    between atoms: _591  and  _594
REMARK  235  A    between atoms: _594  and  _595
REMARK  236  A    between atoms: _598  and  _600
REMARK  237  A    between atoms: _600  and  _601
REMARK  238  A    between atoms: _600  and  _603
REMARK  239  A    between atoms: _603  and  _604
REMARK  240  A    between atoms: _607  and  _609
REMARK  241  A    between atoms: _609  and  _610
REMARK  242  A    between atoms: _609  and  _612
REMARK  243  A    between atoms: _612  and  _613
REMARK                            x       y       z     vdW  Elec       q    Type
REMARK                         _______ _______ _______ _____ _____    ______ ____
ROOT
ATOM      1  CA  LEU A   1       4.143  10.601  18.071  0.00  0.00    +0.133 C 
ENDROOT
BRANCH   1   2
ATOM      2  N   LEU A   1       2.714  10.801  18.211  0.00  0.00    -0.239 NA
ATOM      3  H   LEU A   1       2.341  11.752  18.404  0.00  0.00    +0.142 HD
ENDBRANCH   1   2
BRANCH   1   4
ATOM      4  C   LEU A   1       4.599   9.720  19.228  0.00  0.00    +0.224 C 
ATOM      5  O   LEU A   1       4.379  10.075  20.389  0.00  0.00    -0.287 OA
ENDBRANCH   1   4
BRANCH   1   6
ATOM      6  CB  LEU A   1       4.903  11.927  18.140  0.00  0.00    +0.025 C 
BRANCH   6   7
ATOM      7  CG  LEU A   1       6.431  11.796  18.253  0.00  0.00    +0.002 C 
ATOM      8  CD2 LEU A   1       7.129  13.174  18.329  0.00  0.00    +0.000 C 
ATOM      9  CD1 LEU A   1       7.021  10.974  17.102  0.00  0.00    +0.000 C 
ENDBRANCH   6   7
ENDBRANCH   1   6
TORSDOF 4
REMARK  Name = ../refined-set-2016/4f5y/4f5y_pocket.pdb
REMARK  243 active torsions:
REMARK  status: ('A' for Active; 'I' for Inactive)
REMARK    1  A    between atoms: _1  and  _3
REMARK    2  A    between atoms: _3  and  _4
REMARK    3  A    between atoms: _6  and  _8
REMARK    4  A    between atoms: _8  and  _9
REMARK    5  A    between atoms: _8  and  _11
REMARK    6  A    between atoms: _11  and  _12
REMARK    7  A    between atoms: _15  and  _17
REMARK    8  A    between atoms: _17  and  _18
REMARK    9  A    between atoms: _21  and  _23
REMARK   10  A    between atoms: _23  and  _24
REMARK   11  A    between atoms: _23  and  _26
REMARK   12  A    between atoms: _26  and  _27
REMARK   13  A    between atoms: _37  and  _39
REMARK   14  A    between atoms: _39  and  _40
REMARK   15  A    between atoms: _39  and  _42
REMARK   16  A    between atoms: _42  and  _43
REMARK   17  A    between atoms: _45  and  _47
REMARK   18  A    between atoms: _47  and  _48
REMARK   19  A    between atoms: _47  and  _50
REMARK   20  A    between atoms: _50  and  _51
REMARK   21  A    between atoms: _56  and  _57
REMARK   22  A    between atoms: _59  and  _61
REMARK   23  A    between atoms: _61  and  _62
REMARK   24  A    between atoms: _61  and  _64
REMARK   25  A    between atoms: _64  and  _65
REMARK   26  A    between atoms: _70  and  _71
REMARK   27  A    between atoms: _73  and  _75
REMARK   28  A    between atoms: _75  and  _76
REMARK   29  A    between atoms: _75  and  _78
REMARK   30  A    between atoms: _78  and  _79
REMARK   31  A    between atoms: _82  and  _84
REMARK   32  A    between atoms: _84  and  _85
REMARK   33  A    between atoms: _87  and  _89
REMARK   34  A    between atoms: _89  and  _90
REMARK   35  A    between atoms: _89  and  _92
REMARK   36  A    between atoms: _92  and  _93
REMARK   37  A    between atoms: _98  and  _99
REMARK   38  A    between atoms: _101  and  _103
REMARK   39  A    between atoms: _103  and  _104
REMARK   40  A    between atoms: _103  and  _106
REMARK   41  A    between atoms: _106  and  _107
REMARK   42  A    between atoms: _110  and  _112
REMARK   43  A    between atoms: _112  and  _113
REMARK   44  A    between atoms: _112  and  _115
REMARK   45  A    between atoms: _115  and  _116
REMARK   46  A    between atoms: _119  and  _121
REMARK   47  A    between atoms: _121  and  _122
REMARK   48  A    between atoms: _121  and  _124
REMARK   49  A    between atoms: _124  and  _125
REMARK   50  A    between atoms: _128  and  _130
REMARK   51  A    between atoms: _130  and  _131
REMARK   52  A    between atoms: _130  and  _133
REMARK   53  A    between atoms: _133  and  _134
REMARK   54  A    between atoms: _137  and  _139
REMARK   55  A    between atoms: _139  and  _140
REMARK   56  A    between atoms: _139  and  _142
REMARK   57  A    between atoms: _142  and  _143
REMARK   58  A    between atoms: _143  and  _144
REMARK   59  A    between atoms: _144  and  _145
REMARK   60  A    between atoms: _145  and  _146
REMARK   61  A    between atoms: _150  and  _152
REMARK   62  A    between atoms: _152  and  _153
REMARK   63  A    between atoms: _152  and  _155
REMARK   64  A    between atoms: _155  and  _156
REMARK   65  A    between atoms: _159  and  _161
REMARK   66  A    between atoms: _161  and  _162
REMARK   67  A    between atoms: _161  and  _164
REMARK   68  A    between atoms: _164  and  _165
REMARK   69  A    between atoms: _165  and  _166
REMARK   70  A    between atoms: _166  and  _167
REMARK   71  A    between atoms: _176  and  _178
REMARK   72  A    between atoms: _178  and  _179
REMARK   73  A    between atoms: _178  and  _181
REMARK   74  A    between atoms: _184  and  _186
REMARK   75  A    between atoms: _186  and  _187
REMARK   76  A    between atoms: _186  and  _189
REMARK   77  A    between atoms: _189  and  _190
REMARK   78  A    between atoms: _195  and  _196
REMARK   79  A    between atoms: _198  and  _200
REMARK   80  A    between atoms: _200  and  _201
REMARK   81  A    between atoms: _200  and  _203
REMARK   82  A    between atoms: _203  and  _204
REMARK   83  A    between atoms: _206  and  _208
REMARK   84  A    between atoms: _208  and  _209
REMARK   85  A    between atoms: _208  and  _211
REMARK   86  A    between atoms: _211  and  _212
REMARK   87  A    between atoms: _212  and  _213
REMARK   88  A    between atoms: _216  and  _218
REMARK   89  A    between atoms: _218  and  _219
REMARK   90  A    between atoms: _218  and  _221
REMARK   91  A    between atoms: _221  and  _222
REMARK   92  A    between atoms: _227  and  _228
REMARK   93  A    between atoms: _230  and  _232
REMARK   94  A    between atoms: _232  and  _233
REMARK   95  A    between atoms: _236  and  _238
REMARK   96  A    between atoms: _238  and  _239
REMARK   97  A    between atoms: _238  and  _241
REMARK   98  A    between atoms: _241  and  _242
REMARK   99  A    between atoms: _246  and  _247
REMARK  100  A    between atoms: _252  and  _254
REMARK  101  A    between atoms: _254  and  _255
REMARK  102  A    between atoms: _254  and  _257
REMARK  103  A    between atoms: _257  and  _258
REMARK  104  A    between atoms: _261  and  _263
REMARK  105  A    between atoms: _263  and  _264
REMARK  106  A    between atoms: _263  and  _266
REMARK  107  A    between atoms: _266  and  _267
REMARK  108  A    between atoms: _267  and  _268
REMARK  109  A    between atoms: _273  and  _275
REMARK  110  A    between atoms: _275  and  _276
REMARK  111  A    between atoms: _275  and  _278
REMARK  112  A    between atoms: _278  and  _279
REMARK  113  A    between atoms: _282  and  _284
REMARK  114  A    between atoms: _284  and  _285
REMARK  115  A    between atoms: _284  and  _287
REMARK  116  A    between atoms: _287  and  _288
REMARK  117  A    between atoms: _294  and  _296
REMARK  118  A    between atoms: _296  and  _297
REMARK  119  A    between atoms: _299  and  _301
REMARK  120  A    between atoms: _301  and  _302
REMARK  121  A    between atoms: _301  and  _304
REMARK  122  A    between atoms: _304  and  _305
REMARK  123  A    between atoms: _308  and  _310
REMARK  124  A    between atoms: _310  and  _311
REMARK  125  A    between atoms: _314  and  _316
REMARK  126  A    between atoms: _316  and  _317
REMARK  127  A    between atoms: _316  and  _319
REMARK  128  A    between atoms: _319  and  _320
REMARK  129  A    between atoms: _330  and  _332
REMARK  130  A    between atoms: _332  and  _333
REMARK  131  A    between atoms: _332  and  _335
REMARK  132  A    between atoms: _335  and  _336
REMARK  133  A    between atoms: _338  and  _340
REMARK  134  A    between atoms: _340  and  _341
REMARK  135  A    between atoms: _340  and  _343
REMARK  136  A    between atoms: _343  and  _344
REMARK  137  A    between atoms: _349  and  _350
REMARK  138  A    between atoms: _352  and  _354
REMARK  139  A    between atoms: _354  and  _355
REMARK  140  A    between atoms: _354  and  _357
REMARK  141  A    between atoms: _357  and  _358
REMARK  142  A    between atoms: _363  and  _364
REMARK  143  A    between atoms: _366  and  _368
REMARK  144  A    between atoms: _368  and  _369
REMARK  145  A    between atoms: _368  and  _371
REMARK  146  A    between atoms: _371  and  _372
REMARK  147  A    between atoms: _375  and  _377
REMARK  148  A    between atoms: _377  and  _378
REMARK  149  A    between atoms: _380  and  _382
REMARK  150  A    between atoms: _382  and  _383
REMARK  151  A    between atoms: _382  and  _385
REMARK  152  A    between atoms: _385  and  _386
REMARK  153  A    between atoms: _391  and  _392
REMARK  154  A    between atoms: _394  and  _396
REMARK  155  A    between atoms: _396  and  _397
REMARK  156  A    between atoms: _396  and  _399
REMARK  157  A    between atoms: _399  and  _400
REMARK  158  A    between atoms: _403  and  _405
REMARK  159  A    between atoms: _405  and  _406
REMARK  160  A    between atoms: _405  and  _408
REMARK  161  A    between atoms: _408  and  _409
REMARK  162  A    between atoms: _409  and  _410
REMARK  163  A    between atoms: _410  and  _411
REMARK  164  A    between atoms: _420  and  _422
REMARK  165  A    between atoms: _422  and  _423
REMARK  166  A    between atoms: _422  and  _425
REMARK  167  A    between atoms: _425  and  _426
REMARK  168  A    between atoms: _429  and  _431
REMARK  169  A    between atoms: _431  and  _432
REMARK  170  A    between atoms: _431  and  _434
REMARK  171  A    between atoms: _434  and  _435
REMARK  172  A    between atoms: _438  and  _440
REMARK  173  A    between atoms: _440  and  _441
REMARK  174  A    between atoms: _440  and  _443
REMARK  175  A    between atoms: _443  and  _444
REMARK  176  A    between atoms: _447  and  _449
REMARK  177  A    between atoms: _449  and  _450
REMARK  178  A    between atoms: _449  and  _452
REMARK  179  A    between atoms: _452  and  _453
REMARK  180  A    between atoms: _456  and  _458
REMARK  181  A    between atoms: _458  and  _459
REMARK  182  A    between atoms: _458  and  _461
REMARK  183  A    between atoms: _461  and  _462
REMARK  184  A    between atoms: _462  and  _463
REMARK  185  A    between atoms: _463  and  _464
REMARK  186  A    between atoms: _473  and  _475
REMARK  187  A    between atoms: _475  and  _476
REMARK  188  A    between atoms: _475  and  _478
REMARK  189  A    between atoms: _481  and  _483
REMARK  190  A    between atoms: _483  and  _484
REMARK  191  A    between atoms: _483  and  _486
REMARK  192  A    between atoms: _486  and  _487
REMARK  193  A    between atoms: _492  and  _493
REMARK  194  A    between atoms: _495  and  _497
REMARK  195  A    between atoms: _497  and  _498
REMARK  196  A    between atoms: _497  and  _500
REMARK  197  A    between atoms: _500  and  _501
REMARK  198  A    between atoms: _503  and  _505
REMARK  199  A    between atoms: _505  and  _506
REMARK  200  A    between atoms: _505  and  _508
REMARK  201  A    between atoms: _508  and  _509
REMARK  202  A    between atoms: _514  and  _516
REMARK  203  A    between atoms: _516  and  _517
REMARK  204  A    between atoms: _516  and  _519
REMARK  205  A    between atoms: _519  and  _520
REMARK  206  A    between atoms: _522  and  _524
REMARK  207  A    between atoms: _524  and  _525
REMARK  208  A    between atoms: _524  and  _527
REMARK  209  A    between atoms: _527  and  _528
REMARK  210  A    between atoms: _528  and  _529
REMARK  211  A    between atoms: _532  and  _534
REMARK  212  A    between atoms: _534  and  _535
REMARK  213  A    between atoms: _534  and  _537
REMARK  214  A    between atoms: _537  and  _538
REMARK  215  A    between atoms: _543  and  _544
REMARK  216  A    between atoms: _546  and  _548
REMARK  217  A    between atoms: _548  and  _549
REMARK  218  A    between atoms: _552  and  _554
REMARK  219  A    between atoms: _554  and  _555
REMARK  220  A    between atoms: _554  and  _557
REMARK  221  A    between atoms: _557  and  _558
REMARK  222  A    between atoms: _562  and  _563
REMARK  223  A    between atoms: _568  and  _570
REMARK  224  A    between atoms: _570  and  _571
REMARK  225  A    between atoms: _570  and  _573
REMARK  226  A    between atoms: _573  and  _574
REMARK  227  A    between atoms: _577  and  _579
REMARK  228  A    between atoms: _579  and  _580
REMARK  229  A    between atoms: _579  and  _582
REMARK  230  A    between atoms: _582  and  _583
REMARK  231  A    between atoms: _583  and  _584
REMARK  232  A    between atoms: _589  and  _591
REMARK  233  A    between atoms: _591  and  _592
REMARK  234  A    between atoms: _591  and  _594
REMARK  235  A    between atoms: _594  and  _595
REMARK  236  A    between atoms: _598  and  _600
REMARK  237  A    between atoms: _600  and  _601
REMARK  238  A    between atoms: _600  and  _603
REMARK  239  A    between atoms: _603  and  _604
REMARK  240  A    between atoms: _607  and  _609
REMARK  241  A    between atoms: _609  and  _610
REMARK  242  A    between atoms: _609  and  _612
REMARK  243  A    between atoms: _612  and  _613
REMARK                            x       y       z     vdW  Elec       q    Type
REMARK                         _______ _______ _______ _____ _____    ______ ____
ROOT
ATOM      1  CA  ARG A   3      12.778  22.133  12.865  0.00  0.00    +0.149 C 
ENDROOT
BRANCH   1   2
ATOM      2  C   ARG A   3      12.842  21.104  11.734  0.00  0.00    +0.241 C 
ATOM      3  N   VAL A   4      13.758  20.150  11.859  0.00  0.00    -0.297 N 
ATOM      4  H   VAL A   4      14.487  20.237  12.596  0.00  0.00    +0.150 HD
ATOM      5  O   ARG A   3      12.088  21.183  10.761  0.00  0.00    -0.273 OA
BRANCH   3   6
ATOM      6  CA  VAL A   4      13.762  18.986  10.986  0.00  0.00    +0.149 C 
BRANCH   6   7
ATOM      7  C   VAL A   4      13.429  17.756  11.833  0.00  0.00    +0.241 C 
ATOM      8  O   VAL A   4      14.202  17.364  12.709  0.00  0.00    -0.273 OA
ATOM      9  N   TYR A   5      12.271  17.158  11.586  0.00  0.00    -0.297 N 
ATOM     10  H   TYR A   5      11.638  17.539  10.854  0.00  0.00    +0.150 HD
BRANCH   9  11
ATOM     11  CA  TYR A   5      11.880  15.968  12.337  0.00  0.00    +0.153 C 
BRANCH  11  12
ATOM     12  C   TYR A   5      11.605  14.794  11.407  0.00  0.00    +0.241 C 
ATOM     13  N   SER A   6      11.473  13.612  11.992  0.00  0.00    -0.296 N 
ATOM     14  H   SER A   6      11.441  13.542  13.029  0.00  0.00    +0.150 HD
ATOM     15  O   TYR A   5      11.506  14.953  10.186  0.00  0.00    -0.273 OA
BRANCH  13  16
ATOM     16  CA  SER A   6      11.373  12.417  11.178  0.00  0.00    +0.166 C 
BRANCH  16  17
ATOM     17  C   SER A   6      10.004  12.276  10.510  0.00  0.00    +0.229 C 
ATOM     18  O   SER A   6       8.944  12.358  11.146  0.00  0.00    -0.286 OA
ENDBRANCH  16  17
BRANCH  16  19
ATOM     19  CB  SER A   6      11.742  11.164  11.979  0.00  0.00    +0.165 C 
BRANCH  19  20
ATOM     20  OG  SER A   6      12.430  10.226  11.155  0.00  0.00    -0.380 OA
ATOM     21  H   SER A   6      12.659   9.425  11.690  0.00  0.00    +0.211 HD
ENDBRANCH  19  20
ENDBRANCH  16  19
ENDBRANCH  13  16
ENDBRANCH  11  12
BRANCH  11  22
ATOM     22  CB  TYR A   5      10.657  16.238  13.209  0.00  0.00    +0.055 C 
BRANCH  22  23
ATOM     23  CG  TYR A   5       9.402  16.468  12.414  0.00  0.00    -0.020 A 
ATOM     24  CD2 TYR A   5       8.497  15.436  12.195  0.00  0.00    -0.001 A 
ATOM     25  CE2 TYR A   5       7.355  15.642  11.463  0.00  0.00    +0.036 A 
ATOM     26  CZ  TYR A   5       7.097  16.899  10.936  0.00  0.00    +0.134 A 
ATOM     27  CE1 TYR A   5       7.982  17.937  11.141  0.00  0.00    +0.036 A 
ATOM     28  CD1 TYR A   5       9.125  17.717  11.872  0.00  0.00    -0.001 A 
BRANCH  26  29
ATOM     29  OH  TYR A   5       5.950  17.112  10.200  0.00  0.00    -0.506 OA
ATOM     30  HH  TYR A   5       5.921  18.055   9.901  0.00  0.00    +0.292 HD
ENDBRANCH  26  29
ENDBRANCH  22  23
ENDBRANCH  11  22
ENDBRANCH   9  11
ENDBRANCH   6   7
BRANCH   6  31
ATOM     31  CB  VAL A   4      15.128  18.788  10.289  0.00  0.00    +0.027 C 
ATOM     32  CG2 VAL A   4      15.597  20.096   9.665  0.00  0.00    +0.002 C 
ATOM     33  CG1 VAL A   4      15.033  17.677   9.233  0.00  0.00    +0.002 C 
ENDBRANCH   6  31
ENDBRANCH   3   6
ENDBRANCH   1   2
BRANCH   1  35
ATOM     34  C   ASP A   2      12.667  24.227  11.638  0.00  0.00    +0.241 C 
ATOM     35  N   ARG A   3      12.078  23.346  12.442  0.00  0.00    -0.297 N 
ATOM     36  H   ARG A   3      11.108  23.522  12.774  0.00  0.00    +0.150 HD
ATOM     37  O   ASP A   2      13.814  24.066  11.211  0.00  0.00    -0.273 OA
BRANCH  34  38
ATOM     38  CA  ASP A   2      11.865  25.490  11.269  0.00  0.00    +0.160 C 
BRANCH  38  40
ATOM     39  C   LYS A   1      10.557  24.508   9.415  0.00  0.00    +0.238 C 
ATOM     40  N   ASP A   2      10.629  25.290  10.493  0.00  0.00    -0.297 N 
ATOM     41  H   ASP A   2       9.768  25.784  10.802  0.00  0.00    +0.150 HD
ATOM     42  O   LYS A   1      11.505  23.824   9.014  0.00  0.00    -0.274 OA
BRANCH  39  43
ATOM     43  CA  LYS A   1       9.215  24.484   8.658  0.00  0.00    +0.145 C 
BRANCH  43  44
ATOM     44  N   LYS A   1       8.241  25.526   9.028  0.00  0.00    -0.238 NA
ATOM     45  H   LYS A   1       8.197  26.391   8.452  0.00  0.00    +0.142 HD
ENDBRANCH  43  44
BRANCH  43  46
ATOM     46  CB  LYS A   1       9.496  24.571   7.149  0.00  0.00    +0.026 C 
BRANCH  46  47
ATOM     47  CG  LYS A   1      10.167  25.881   6.736  0.00  0.00    -0.000 C 
BRANCH  47  48
ATOM     48  CD  LYS A   1      11.599  25.657   6.268  0.00  0.00    -0.024 C 
BRANCH  48  49
ATOM     49  CE  LYS A   1      12.393  26.960   6.242  0.00  0.00    -0.086 C 
BRANCH  49  50
ATOM     50  NZ  LYS A   1      12.888  27.352   7.597  0.00  0.00    +0.380 N 
ATOM     51  HZ1 LYS A   1      12.078  27.481   8.237  0.00  0.00    -0.089 HD
ATOM     52  HZ2 LYS A   1      13.508  26.604   7.968  0.00  0.00    -0.089 HD
ATOM     53  HZ3 LYS A   1      13.421  28.242   7.526  0.00  0.00    -0.089 HD
ENDBRANCH  49  50
ENDBRANCH  48  49
ENDBRANCH  47  48
ENDBRANCH  46  47
ENDBRANCH  43  46
ENDBRANCH  39  43
ENDBRANCH  38  40
BRANCH  38  54
ATOM     54  CB  ASP A   2      11.567  26.305  12.534  0.00  0.00    +0.143 C 
BRANCH  54  55
ATOM     55  CG  ASP A   2      10.204  25.980  13.129  0.00  0.00    +0.367 C 
ATOM     56  OD2 ASP A   2      10.028  24.859  13.666  0.00  0.00    -0.246 OA
ATOM     57  OD1 ASP A   2       9.307  26.849  13.057  0.00  0.00    -0.246 OA
ENDBRANCH  54  55
ENDBRANCH  38  54
ENDBRANCH  34  38
ENDBRANCH   1  35
BRANCH   1  58
ATOM     58  CB  ARG A   3      12.112  21.515  14.112  0.00  0.00    +0.033 C 
BRANCH  58  59
ATOM     59  CG  ARG A   3      12.109  22.411  15.362  0.00  0.00    +0.045 C 
BRANCH  59  60
ATOM     60  CD  ARG A   3      13.525  22.822  15.793  0.00  0.00    +0.174 C 
BRANCH  60  61
ATOM     61  NE  ARG A   3      13.920  24.126  15.254  0.00  0.00    -0.265 N 
ATOM     62  CZ  ARG A   3      15.170  24.589  15.238  0.00  0.00    +0.342 C 
ATOM     63  NH2 ARG A   3      16.168  23.855  15.724  0.00  0.00    -0.292 N 
ATOM     64 HH21 ARG A   3      15.976  22.913  16.120  0.00  0.00    +0.255 HD
ATOM     65 HH22 ARG A   3      17.140  24.224  15.708  0.00  0.00    +0.255 HD
ATOM     66  NH1 ARG A   3      15.426  25.787  14.725  0.00  0.00    -0.292 N 
ATOM     67 HH11 ARG A   3      16.401  26.150  14.712  0.00  0.00    +0.255 HD
ATOM     68 HH12 ARG A   3      14.652  26.363  14.336  0.00  0.00    +0.255 HD
ATOM     69  HE  ARG A   3      13.174  24.732  14.857  0.00  0.00    +0.259 HD
ENDBRANCH  60  61
ENDBRANCH  59  60
ENDBRANCH  58  59
ENDBRANCH   1  58
TORSDOF 29
REMARK  Name = ../refined-set-2016/4f5y/4f5y_pocket.pdb
REMARK  243 active torsions:
REMARK  status: ('A' for Active; 'I' for Inactive)
REMARK    1  A    between atoms: _1  and  _3
REMARK    2  A    between atoms: _3  and  _4
REMARK    3  A    between atoms: _6  and  _8
REMARK    4  A    between atoms: _8  and  _9
REMARK    5  A    between atoms: _8  and  _11
REMARK    6  A    between atoms: _11  and  _12
REMARK    7  A    between atoms: _15  and  _17
REMARK    8  A    between atoms: _17  and  _18
REMARK    9  A    between atoms: _21  and  _23
REMARK   10  A    between atoms: _23  and  _24
REMARK   11  A    between atoms: _23  and  _26
REMARK   12  A    between atoms: _26  and  _27
REMARK   13  A    between atoms: _37  and  _39
REMARK   14  A    between atoms: _39  and  _40
REMARK   15  A    between atoms: _39  and  _42
REMARK   16  A    between atoms: _42  and  _43
REMARK   17  A    between atoms: _45  and  _47
REMARK   18  A    between atoms: _47  and  _48
REMARK   19  A    between atoms: _47  and  _50
REMARK   20  A    between atoms: _50  and  _51
REMARK   21  A    between atoms: _56  and  _57
REMARK   22  A    between atoms: _59  and  _61
REMARK   23  A    between atoms: _61  and  _62
REMARK   24  A    between atoms: _61  and  _64
REMARK   25  A    between atoms: _64  and  _65
REMARK   26  A    between atoms: _70  and  _71
REMARK   27  A    between atoms: _73  and  _75
REMARK   28  A    between atoms: _75  and  _76
REMARK   29  A    between atoms: _75  and  _78
REMARK   30  A    between atoms: _78  and  _79
REMARK   31  A    between atoms: _82  and  _84
REMARK   32  A    between atoms: _84  and  _85
REMARK   33  A    between atoms: _87  and  _89
REMARK   34  A    between atoms: _89  and  _90
REMARK   35  A    between atoms: _89  and  _92
REMARK   36  A    between atoms: _92  and  _93
REMARK   37  A    between atoms: _98  and  _99
REMARK   38  A    between atoms: _101  and  _103
REMARK   39  A    between atoms: _103  and  _104
REMARK   40  A    between atoms: _103  and  _106
REMARK   41  A    between atoms: _106  and  _107
REMARK   42  A    between atoms: _110  and  _112
REMARK   43  A    between atoms: _112  and  _113
REMARK   44  A    between atoms: _112  and  _115
REMARK   45  A    between atoms: _115  and  _116
REMARK   46  A    between atoms: _119  and  _121
REMARK   47  A    between atoms: _121  and  _122
REMARK   48  A    between atoms: _121  and  _124
REMARK   49  A    between atoms: _124  and  _125
REMARK   50  A    between atoms: _128  and  _130
REMARK   51  A    between atoms: _130  and  _131
REMARK   52  A    between atoms: _130  and  _133
REMARK   53  A    between atoms: _133  and  _134
REMARK   54  A    between atoms: _137  and  _139
REMARK   55  A    between atoms: _139  and  _140
REMARK   56  A    between atoms: _139  and  _142
REMARK   57  A    between atoms: _142  and  _143
REMARK   58  A    between atoms: _143  and  _144
REMARK   59  A    between atoms: _144  and  _145
REMARK   60  A    between atoms: _145  and  _146
REMARK   61  A    between atoms: _150  and  _152
REMARK   62  A    between atoms: _152  and  _153
REMARK   63  A    between atoms: _152  and  _155
REMARK   64  A    between atoms: _155  and  _156
REMARK   65  A    between atoms: _159  and  _161
REMARK   66  A    between atoms: _161  and  _162
REMARK   67  A    between atoms: _161  and  _164
REMARK   68  A    between atoms: _164  and  _165
REMARK   69  A    between atoms: _165  and  _166
REMARK   70  A    between atoms: _166  and  _167
REMARK   71  A    between atoms: _176  and  _178
REMARK   72  A    between atoms: _178  and  _179
REMARK   73  A    between atoms: _178  and  _181
REMARK   74  A    between atoms: _184  and  _186
REMARK   75  A    between atoms: _186  and  _187
REMARK   76  A    between atoms: _186  and  _189
REMARK   77  A    between atoms: _189  and  _190
REMARK   78  A    between atoms: _195  and  _196
REMARK   79  A    between atoms: _198  and  _200
REMARK   80  A    between atoms: _200  and  _201
REMARK   81  A    between atoms: _200  and  _203
REMARK   82  A    between atoms: _203  and  _204
REMARK   83  A    between atoms: _206  and  _208
REMARK   84  A    between atoms: _208  and  _209
REMARK   85  A    between atoms: _208  and  _211
REMARK   86  A    between atoms: _211  and  _212
REMARK   87  A    between atoms: _212  and  _213
REMARK   88  A    between atoms: _216  and  _218
REMARK   89  A    between atoms: _218  and  _219
REMARK   90  A    between atoms: _218  and  _221
REMARK   91  A    between atoms: _221  and  _222
REMARK   92  A    between atoms: _227  and  _228
REMARK   93  A    between atoms: _230  and  _232
REMARK   94  A    between atoms: _232  and  _233
REMARK   95  A    between atoms: _236  and  _238
REMARK   96  A    between atoms: _238  and  _239
REMARK   97  A    between atoms: _238  and  _241
REMARK   98  A    between atoms: _241  and  _242
REMARK   99  A    between atoms: _246  and  _247
REMARK  100  A    between atoms: _252  and  _254
REMARK  101  A    between atoms: _254  and  _255
REMARK  102  A    between atoms: _254  and  _257
REMARK  103  A    between atoms: _257  and  _258
REMARK  104  A    between atoms: _261  and  _263
REMARK  105  A    between atoms: _263  and  _264
REMARK  106  A    between atoms: _263  and  _266
REMARK  107  A    between atoms: _266  and  _267
REMARK  108  A    between atoms: _267  and  _268
REMARK  109  A    between atoms: _273  and  _275
REMARK  110  A    between atoms: _275  and  _276
REMARK  111  A    between atoms: _275  and  _278
REMARK  112  A    between atoms: _278  and  _279
REMARK  113  A    between atoms: _282  and  _284
REMARK  114  A    between atoms: _284  and  _285
REMARK  115  A    between atoms: _284  and  _287
REMARK  116  A    between atoms: _287  and  _288
REMARK  117  A    between atoms: _294  and  _296
REMARK  118  A    between atoms: _296  and  _297
REMARK  119  A    between atoms: _299  and  _301
REMARK  120  A    between atoms: _301  and  _302
REMARK  121  A    between atoms: _301  and  _304
REMARK  122  A    between atoms: _304  and  _305
REMARK  123  A    between atoms: _308  and  _310
REMARK  124  A    between atoms: _310  and  _311
REMARK  125  A    between atoms: _314  and  _316
REMARK  126  A    between atoms: _316  and  _317
REMARK  127  A    between atoms: _316  and  _319
REMARK  128  A    between atoms: _319  and  _320
REMARK  129  A    between atoms: _330  and  _332
REMARK  130  A    between atoms: _332  and  _333
REMARK  131  A    between atoms: _332  and  _335
REMARK  132  A    between atoms: _335  and  _336
REMARK  133  A    between atoms: _338  and  _340
REMARK  134  A    between atoms: _340  and  _341
REMARK  135  A    between atoms: _340  and  _343
REMARK  136  A    between atoms: _343  and  _344
REMARK  137  A    between atoms: _349  and  _350
REMARK  138  A    between atoms: _352  and  _354
REMARK  139  A    between atoms: _354  and  _355
REMARK  140  A    between atoms: _354  and  _357
REMARK  141  A    between atoms: _357  and  _358
REMARK  142  A    between atoms: _363  and  _364
REMARK  143  A    between atoms: _366  and  _368
REMARK  144  A    between atoms: _368  and  _369
REMARK  145  A    between atoms: _368  and  _371
REMARK  146  A    between atoms: _371  and  _372
REMARK  147  A    between atoms: _375  and  _377
REMARK  148  A    between atoms: _377  and  _378
REMARK  149  A    between atoms: _380  and  _382
REMARK  150  A    between atoms: _382  and  _383
REMARK  151  A    between atoms: _382  and  _385
REMARK  152  A    between atoms: _385  and  _386
REMARK  153  A    between atoms: _391  and  _392
REMARK  154  A    between atoms: _394  and  _396
REMARK  155  A    between atoms: _396  and  _397
REMARK  156  A    between atoms: _396  and  _399
REMARK  157  A    between atoms: _399  and  _400
REMARK  158  A    between atoms: _403  and  _405
REMARK  159  A    between atoms: _405  and  _406
REMARK  160  A    between atoms: _405  and  _408
REMARK  161  A    between atoms: _408  and  _409
REMARK  162  A    between atoms: _409  and  _410
REMARK  163  A    between atoms: _410  and  _411
REMARK  164  A    between atoms: _420  and  _422
REMARK  165  A    between atoms: _422  and  _423
REMARK  166  A    between atoms: _422  and  _425
REMARK  167  A    between atoms: _425  and  _426
REMARK  168  A    between atoms: _429  and  _431
REMARK  169  A    between atoms: _431  and  _432
REMARK  170  A    between atoms: _431  and  _434
REMARK  171  A    between atoms: _434  and  _435
REMARK  172  A    between atoms: _438  and  _440
REMARK  173  A    between atoms: _440  and  _441
REMARK  174  A    between atoms: _440  and  _443
REMARK  175  A    between atoms: _443  and  _444
REMARK  176  A    between atoms: _447  and  _449
REMARK  177  A    between atoms: _449  and  _450
REMARK  178  A    between atoms: _449  and  _452
REMARK  179  A    between atoms: _452  and  _453
REMARK  180  A    between atoms: _456  and  _458
REMARK  181  A    between atoms: _458  and  _459
REMARK  182  A    between atoms: _458  and  _461
REMARK  183  A    between atoms: _461  and  _462
REMARK  184  A    between atoms: _462  and  _463
REMARK  185  A    between atoms: _463  and  _464
REMARK  186  A    between atoms: _473  and  _475
REMARK  187  A    between atoms: _475  and  _476
REMARK  188  A    between atoms: _475  and  _478
REMARK  189  A    between atoms: _481  and  _483
REMARK  190  A    between atoms: _483  and  _484
REMARK  191  A    between atoms: _483  and  _486
REMARK  192  A    between atoms: _486  and  _487
REMARK  193  A    between atoms: _492  and  _493
REMARK  194  A    between atoms: _495  and  _497
REMARK  195  A    between atoms: _497  and  _498
REMARK  196  A    between atoms: _497  and  _500
REMARK  197  A    between atoms: _500  and  _501
REMARK  198  A    between atoms: _503  and  _505
REMARK  199  A    between atoms: _505  and  _506
REMARK  200  A    between atoms: _505  and  _508
REMARK  201  A    between atoms: _508  and  _509
REMARK  202  A    between atoms: _514  and  _516
REMARK  203  A    between atoms: _516  and  _517
REMARK  204  A    between atoms: _516  and  _519
REMARK  205  A    between atoms: _519  and  _520
REMARK  206  A    between atoms: _522  and  _524
REMARK  207  A    between atoms: _524  and  _525
REMARK  208  A    between atoms: _524  and  _527
REMARK  209  A    between atoms: _527  and  _528
REMARK  210  A    between atoms: _528  and  _529
REMARK  211  A    between atoms: _532  and  _534
REMARK  212  A    between atoms: _534  and  _535
REMARK  213  A    between atoms: _534  and  _537
REMARK  214  A    between atoms: _537  and  _538
REMARK  215  A    between atoms: _543  and  _544
REMARK  216  A    between atoms: _546  and  _548
REMARK  217  A    between atoms: _548  and  _549
REMARK  218  A    between atoms: _552  and  _554
REMARK  219  A    between atoms: _554  and  _555
REMARK  220  A    between atoms: _554  and  _557
REMARK  221  A    between atoms: _557  and  _558
REMARK  222  A    between atoms: _562  and  _563
REMARK  223  A    between atoms: _568  and  _570
REMARK  224  A    between atoms: _570  and  _571
REMARK  225  A    between atoms: _570  and  _573
REMARK  226  A    between atoms: _573  and  _574
REMARK  227  A    between atoms: _577  and  _579
REMARK  228  A    between atoms: _579  and  _580
REMARK  229  A    between atoms: _579  and  _582
REMARK  230  A    between atoms: _582  and  _583
REMARK  231  A    between atoms: _583  and  _584
REMARK  232  A    between atoms: _589  and  _591
REMARK  233  A    between atoms: _591  and  _592
REMARK  234  A    between atoms: _591  and  _594
REMARK  235  A    between atoms: _594  and  _595
REMARK  236  A    between atoms: _598  and  _600
REMARK  237  A    between atoms: _600  and  _601
REMARK  238  A    between atoms: _600  and  _603
REMARK  239  A    between atoms: _603  and  _604
REMARK  240  A    between atoms: _607  and  _609
REMARK  241  A    between atoms: _609  and  _610
REMARK  242  A    between atoms: _609  and  _612
REMARK  243  A    between atoms: _612  and  _613
REMARK                            x       y       z     vdW  Elec       q    Type
REMARK                         _______ _______ _______ _____ _____    ______ ____
ROOT
ATOM      1  C   THR A   4      17.990  13.974  22.827  0.00  0.00    +0.246 C 
ATOM      2  N   PRO A   5      17.247  14.586  23.770  0.00  0.00    -0.272 N 
ATOM      3  CA  PRO A   5      18.051  15.094  24.885  0.00  0.00    +0.152 C 
ATOM      4  CB  PRO A   5      17.043  15.912  25.702  0.00  0.00    +0.031 C 
ATOM      5  CG  PRO A   5      16.041  16.359  24.698  0.00  0.00    +0.024 C 
ATOM      6  CD  PRO A   5      15.913  15.217  23.732  0.00  0.00    +0.094 C 
ATOM      7  O   THR A   4      19.206  13.941  22.893  0.00  0.00    -0.273 OA
ENDROOT
BRANCH   3   8
ATOM      8  C   PRO A   5      18.724  14.019  25.744  0.00  0.00    +0.241 C 
ATOM      9  O   PRO A   5      19.575  14.369  26.568  0.00  0.00    -0.273 OA
ATOM     10  N   LEU A   6      18.371  12.746  25.566  0.00  0.00    -0.297 N 
ATOM     11  H   LEU A   6      17.606  12.503  24.904  0.00  0.00    +0.150 HD
BRANCH  10  12
ATOM     12  CA  LEU A   6      19.062  11.695  26.304  0.00  0.00    +0.149 C 
BRANCH  12  13
ATOM     13  C   LEU A   6      20.506  11.607  25.811  0.00  0.00    +0.241 C 
ATOM     14  O   LEU A   6      21.395  11.220  26.559  0.00  0.00    -0.273 OA
ATOM     15  N   GLN A   7      20.740  12.000  24.559  0.00  0.00    -0.297 N 
ATOM     16  H   GLN A   7      19.943  12.292  23.958  0.00  0.00    +0.150 HD
BRANCH  15  17
ATOM     17  CA  GLN A   7      22.094  12.028  24.017  0.00  0.00    +0.149 C 
BRANCH  17  18
ATOM     18  C   GLN A   7      22.993  12.983  24.814  0.00  0.00    +0.241 C 
ATOM     19  N   THR A   8      22.421  14.103  25.253  0.00  0.00    -0.296 N 
ATOM     20  H   THR A   8      21.422  14.284  25.027  0.00  0.00    +0.150 HD
ATOM     21  O   GLN A   7      24.178  12.700  25.032  0.00  0.00    -0.273 OA
BRANCH  19  22
ATOM     22  CA  THR A   8      23.159  15.082  26.042  0.00  0.00    +0.164 C 
BRANCH  22  23
ATOM     23  C   THR A   8      23.626  14.503  27.366  0.00  0.00    +0.229 C 
ATOM     24  O   THR A   8      24.756  14.765  27.793  0.00  0.00    -0.286 OA
ENDBRANCH  22  23
BRANCH  22  25
ATOM     25  CB  THR A   8      22.289  16.330  26.339  0.00  0.00    +0.136 C 
ATOM     26  CG2 THR A   8      23.011  17.299  27.238  0.00  0.00    +0.034 C 
BRANCH  25  27
ATOM     27  OG1 THR A   8      21.973  16.975  25.109  0.00  0.00    -0.382 OA
ATOM     28  HG1 THR A   8      21.417  17.774  25.290  0.00  0.00    +0.210 HD
ENDBRANCH  25  27
ENDBRANCH  22  25
ENDBRANCH  19  22
ENDBRANCH  17  18
BRANCH  17  29
ATOM     29  CB  GLN A   7      22.076  12.390  22.517  0.00  0.00    +0.039 C 
BRANCH  29  30
ATOM     30  CG  GLN A   7      21.473  11.284  21.662  0.00  0.00    +0.087 C 
BRANCH  30  31
ATOM     31  CD  GLN A   7      21.492  11.559  20.149  0.00  0.00    +0.219 C 
ATOM     32  OE1 GLN A   7      20.840  12.490  19.657  0.00  0.00    -0.275 OA
ATOM     33  NE2 GLN A   7      22.211  10.713  19.405  0.00  0.00    -0.329 N 
ATOM     34 HE21 GLN A   7      22.744   9.944  19.860  0.00  0.00    +0.145 HD
ATOM     35 HE22 GLN A   7      22.237  10.823  18.371  0.00  0.00    +0.145 HD
ENDBRANCH  30  31
ENDBRANCH  29  30
ENDBRANCH  17  29
ENDBRANCH  15  17
ENDBRANCH  12  13
BRANCH  12  36
ATOM     36  CB  LEU A   6      18.338  10.344  26.193  0.00  0.00    +0.029 C 
BRANCH  36  37
ATOM     37  CG  LEU A   6      16.867  10.411  26.644  0.00  0.00    +0.002 C 
ATOM     38  CD2 LEU A   6      16.732  10.941  28.080  0.00  0.00    +0.000 C 
ATOM     39  CD1 LEU A   6      16.166   9.045  26.481  0.00  0.00    +0.000 C 
ENDBRANCH  36  37
ENDBRANCH  12  36
ENDBRANCH  10  12
ENDBRANCH   3   8
BRANCH   1  40
ATOM     40  CA  THR A   4      17.280  13.330  21.631  0.00  0.00    +0.176 C 
BRANCH  40  43
ATOM     41  C   ALA A   3      15.583  11.980  22.799  0.00  0.00    +0.241 C 
ATOM     42  O   ALA A   3      16.409  11.530  23.611  0.00  0.00    -0.273 OA
ATOM     43  N   THR A   4      15.893  12.874  21.853  0.00  0.00    -0.295 N 
ATOM     44  H   THR A   4      15.134  13.260  21.256  0.00  0.00    +0.150 HD
BRANCH  41  45
ATOM     45  CA  ALA A   3      14.130  11.509  22.839  0.00  0.00    +0.149 C 
ATOM     46  CB  ALA A   3      13.660  11.349  24.275  0.00  0.00    +0.031 C 
BRANCH  45  48
ATOM     47  C   TYR A   2      14.044  10.166  20.817  0.00  0.00    +0.241 C 
ATOM     48  N   ALA A   3      14.036  10.243  22.143  0.00  0.00    -0.297 N 
ATOM     49  H   ALA A   3      13.960   9.367  22.698  0.00  0.00    +0.150 HD
ATOM     50  O   TYR A   2      14.046  11.156  20.077  0.00  0.00    -0.273 OA
BRANCH  47  51
ATOM     51  CA  TYR A   2      14.074   8.756  20.251  0.00  0.00    +0.153 C 
BRANCH  51  54
ATOM     52  C   GLU A   1      12.109   8.613  18.798  0.00  0.00    +0.238 C 
ATOM     53  O   GLU A   1      11.316   8.558  19.749  0.00  0.00    -0.274 OA
ATOM     54  N   TYR A   2      13.428   8.643  18.947  0.00  0.00    -0.297 N 
ATOM     55  H   TYR A   2      14.026   8.583  18.098  0.00  0.00    +0.150 HD
BRANCH  52  56
ATOM     56  CA  GLU A   1      11.607   8.592  17.361  0.00  0.00    +0.145 C 
BRANCH  56  57
ATOM     57  N   GLU A   1      10.269   8.006  17.288  0.00  0.00    -0.238 NA
ATOM     58  H   GLU A   1       9.669   7.982  18.137  0.00  0.00    +0.142 HD
ENDBRANCH  56  57
BRANCH  56  59
ATOM     59  CB  GLU A   1      11.673   9.986  16.712  0.00  0.00    +0.038 C 
BRANCH  59  60
ATOM     60  CG  GLU A   1      10.777  11.043  17.315  0.00  0.00    +0.116 C 
BRANCH  60  61
ATOM     61  CD  GLU A   1      11.027  12.428  16.700  0.00  0.00    +0.365 C 
ATOM     62  OE2 GLU A   1      11.224  13.382  17.485  0.00  0.00    -0.246 OA
ATOM     63  OE1 GLU A   1      11.040  12.561  15.444  0.00  0.00    -0.246 OA
ENDBRANCH  60  61
ENDBRANCH  59  60
ENDBRANCH  56  59
ENDBRANCH  52  56
ENDBRANCH  51  54
BRANCH  51  64
ATOM     64  CB  TYR A   2      15.537   8.340  20.135  0.00  0.00    +0.055 C 
BRANCH  64  65
ATOM     65  CG  TYR A   2      15.721   6.857  20.145  0.00  0.00    -0.020 A 
ATOM     66  CD2 TYR A   2      15.726   6.152  21.340  0.00  0.00    -0.001 A 
ATOM     67  CE2 TYR A   2      15.900   4.785  21.355  0.00  0.00    +0.036 A 
ATOM     68  CZ  TYR A   2      16.047   4.108  20.165  0.00  0.00    +0.134 A 
ATOM     69  CE1 TYR A   2      16.038   4.782  18.970  0.00  0.00    +0.036 A 
ATOM     70  CD1 TYR A   2      15.874   6.148  18.962  0.00  0.00    -0.001 A 
BRANCH  68  71
ATOM     71  OH  TYR A   2      16.205   2.742  20.164  0.00  0.00    -0.506 OA
ATOM     72  HH  TYR A   2      16.190   2.409  21.096  0.00  0.00    +0.292 HD
ENDBRANCH  68  71
ENDBRANCH  64  65
ENDBRANCH  51  64
ENDBRANCH  47  51
ENDBRANCH  45  48
ENDBRANCH  41  45
ENDBRANCH  40  43
BRANCH  40  73
ATOM     73  CB  THR A   4      17.390  14.293  20.414  0.00  0.00    +0.137 C 
ATOM     74  CG2 THR A   4      17.370  13.501  19.114  0.00  0.00    +0.034 C 
BRANCH  73  75
ATOM     75  OG1 THR A   4      16.285  15.213  20.424  0.00  0.00    -0.382 OA
ATOM     76  HG1 THR A   4      16.303  15.739  21.263  0.00  0.00    +0.210 HD
ENDBRANCH  73  75
ENDBRANCH  40  73
ENDBRANCH   1  40
TORSDOF 30
REMARK  Name = ../refined-set-2016/4f5y/4f5y_pocket.pdb
REMARK  243 active torsions:
REMARK  status: ('A' for Active; 'I' for Inactive)
REMARK    1  A    between atoms: _1  and  _3
REMARK    2  A    between atoms: _3  and  _4
REMARK    3  A    between atoms: _6  and  _8
REMARK    4  A    between atoms: _8  and  _9
REMARK    5  A    between atoms: _8  and  _11
REMARK    6  A    between atoms: _11  and  _12
REMARK    7  A    between atoms: _15  and  _17
REMARK    8  A    between atoms: _17  and  _18
REMARK    9  A    between atoms: _21  and  _23
REMARK   10  A    between atoms: _23  and  _24
REMARK   11  A    between atoms: _23  and  _26
REMARK   12  A    between atoms: _26  and  _27
REMARK   13  A    between atoms: _37  and  _39
REMARK   14  A    between atoms: _39  and  _40
REMARK   15  A    between atoms: _39  and  _42
REMARK   16  A    between atoms: _42  and  _43
REMARK   17  A    between atoms: _45  and  _47
REMARK   18  A    between atoms: _47  and  _48
REMARK   19  A    between atoms: _47  and  _50
REMARK   20  A    between atoms: _50  and  _51
REMARK   21  A    between atoms: _56  and  _57
REMARK   22  A    between atoms: _59  and  _61
REMARK   23  A    between atoms: _61  and  _62
REMARK   24  A    between atoms: _61  and  _64
REMARK   25  A    between atoms: _64  and  _65
REMARK   26  A    between atoms: _70  and  _71
REMARK   27  A    between atoms: _73  and  _75
REMARK   28  A    between atoms: _75  and  _76
REMARK   29  A    between atoms: _75  and  _78
REMARK   30  A    between atoms: _78  and  _79
REMARK   31  A    between atoms: _82  and  _84
REMARK   32  A    between atoms: _84  and  _85
REMARK   33  A    between atoms: _87  and  _89
REMARK   34  A    between atoms: _89  and  _90
REMARK   35  A    between atoms: _89  and  _92
REMARK   36  A    between atoms: _92  and  _93
REMARK   37  A    between atoms: _98  and  _99
REMARK   38  A    between atoms: _101  and  _103
REMARK   39  A    between atoms: _103  and  _104
REMARK   40  A    between atoms: _103  and  _106
REMARK   41  A    between atoms: _106  and  _107
REMARK   42  A    between atoms: _110  and  _112
REMARK   43  A    between atoms: _112  and  _113
REMARK   44  A    between atoms: _112  and  _115
REMARK   45  A    between atoms: _115  and  _116
REMARK   46  A    between atoms: _119  and  _121
REMARK   47  A    between atoms: _121  and  _122
REMARK   48  A    between atoms: _121  and  _124
REMARK   49  A    between atoms: _124  and  _125
REMARK   50  A    between atoms: _128  and  _130
REMARK   51  A    between atoms: _130  and  _131
REMARK   52  A    between atoms: _130  and  _133
REMARK   53  A    between atoms: _133  and  _134
REMARK   54  A    between atoms: _137  and  _139
REMARK   55  A    between atoms: _139  and  _140
REMARK   56  A    between atoms: _139  and  _142
REMARK   57  A    between atoms: _142  and  _143
REMARK   58  A    between atoms: _143  and  _144
REMARK   59  A    between atoms: _144  and  _145
REMARK   60  A    between atoms: _145  and  _146
REMARK   61  A    between atoms: _150  and  _152
REMARK   62  A    between atoms: _152  and  _153
REMARK   63  A    between atoms: _152  and  _155
REMARK   64  A    between atoms: _155  and  _156
REMARK   65  A    between atoms: _159  and  _161
REMARK   66  A    between atoms: _161  and  _162
REMARK   67  A    between atoms: _161  and  _164
REMARK   68  A    between atoms: _164  and  _165
REMARK   69  A    between atoms: _165  and  _166
REMARK   70  A    between atoms: _166  and  _167
REMARK   71  A    between atoms: _176  and  _178
REMARK   72  A    between atoms: _178  and  _179
REMARK   73  A    between atoms: _178  and  _181
REMARK   74  A    between atoms: _184  and  _186
REMARK   75  A    between atoms: _186  and  _187
REMARK   76  A    between atoms: _186  and  _189
REMARK   77  A    between atoms: _189  and  _190
REMARK   78  A    between atoms: _195  and  _196
REMARK   79  A    between atoms: _198  and  _200
REMARK   80  A    between atoms: _200  and  _201
REMARK   81  A    between atoms: _200  and  _203
REMARK   82  A    between atoms: _203  and  _204
REMARK   83  A    between atoms: _206  and  _208
REMARK   84  A    between atoms: _208  and  _209
REMARK   85  A    between atoms: _208  and  _211
REMARK   86  A    between atoms: _211  and  _212
REMARK   87  A    between atoms: _212  and  _213
REMARK   88  A    between atoms: _216  and  _218
REMARK   89  A    between atoms: _218  and  _219
REMARK   90  A    between atoms: _218  and  _221
REMARK   91  A    between atoms: _221  and  _222
REMARK   92  A    between atoms: _227  and  _228
REMARK   93  A    between atoms: _230  and  _232
REMARK   94  A    between atoms: _232  and  _233
REMARK   95  A    between atoms: _236  and  _238
REMARK   96  A    between atoms: _238  and  _239
REMARK   97  A    between atoms: _238  and  _241
REMARK   98  A    between atoms: _241  and  _242
REMARK   99  A    between atoms: _246  and  _247
REMARK  100  A    between atoms: _252  and  _254
REMARK  101  A    between atoms: _254  and  _255
REMARK  102  A    between atoms: _254  and  _257
REMARK  103  A    between atoms: _257  and  _258
REMARK  104  A    between atoms: _261  and  _263
REMARK  105  A    between atoms: _263  and  _264
REMARK  106  A    between atoms: _263  and  _266
REMARK  107  A    between atoms: _266  and  _267
REMARK  108  A    between atoms: _267  and  _268
REMARK  109  A    between atoms: _273  and  _275
REMARK  110  A    between atoms: _275  and  _276
REMARK  111  A    between atoms: _275  and  _278
REMARK  112  A    between atoms: _278  and  _279
REMARK  113  A    between atoms: _282  and  _284
REMARK  114  A    between atoms: _284  and  _285
REMARK  115  A    between atoms: _284  and  _287
REMARK  116  A    between atoms: _287  and  _288
REMARK  117  A    between atoms: _294  and  _296
REMARK  118  A    between atoms: _296  and  _297
REMARK  119  A    between atoms: _299  and  _301
REMARK  120  A    between atoms: _301  and  _302
REMARK  121  A    between atoms: _301  and  _304
REMARK  122  A    between atoms: _304  and  _305
REMARK  123  A    between atoms: _308  and  _310
REMARK  124  A    between atoms: _310  and  _311
REMARK  125  A    between atoms: _314  and  _316
REMARK  126  A    between atoms: _316  and  _317
REMARK  127  A    between atoms: _316  and  _319
REMARK  128  A    between atoms: _319  and  _320
REMARK  129  A    between atoms: _330  and  _332
REMARK  130  A    between atoms: _332  and  _333
REMARK  131  A    between atoms: _332  and  _335
REMARK  132  A    between atoms: _335  and  _336
REMARK  133  A    between atoms: _338  and  _340
REMARK  134  A    between atoms: _340  and  _341
REMARK  135  A    between atoms: _340  and  _343
REMARK  136  A    between atoms: _343  and  _344
REMARK  137  A    between atoms: _349  and  _350
REMARK  138  A    between atoms: _352  and  _354
REMARK  139  A    between atoms: _354  and  _355
REMARK  140  A    between atoms: _354  and  _357
REMARK  141  A    between atoms: _357  and  _358
REMARK  142  A    between atoms: _363  and  _364
REMARK  143  A    between atoms: _366  and  _368
REMARK  144  A    between atoms: _368  and  _369
REMARK  145  A    between atoms: _368  and  _371
REMARK  146  A    between atoms: _371  and  _372
REMARK  147  A    between atoms: _375  and  _377
REMARK  148  A    between atoms: _377  and  _378
REMARK  149  A    between atoms: _380  and  _382
REMARK  150  A    between atoms: _382  and  _383
REMARK  151  A    between atoms: _382  and  _385
REMARK  152  A    between atoms: _385  and  _386
REMARK  153  A    between atoms: _391  and  _392
REMARK  154  A    between atoms: _394  and  _396
REMARK  155  A    between atoms: _396  and  _397
REMARK  156  A    between atoms: _396  and  _399
REMARK  157  A    between atoms: _399  and  _400
REMARK  158  A    between atoms: _403  and  _405
REMARK  159  A    between atoms: _405  and  _406
REMARK  160  A    between atoms: _405  and  _408
REMARK  161  A    between atoms: _408  and  _409
REMARK  162  A    between atoms: _409  and  _410
REMARK  163  A    between atoms: _410  and  _411
REMARK  164  A    between atoms: _420  and  _422
REMARK  165  A    between atoms: _422  and  _423
REMARK  166  A    between atoms: _422  and  _425
REMARK  167  A    between atoms: _425  and  _426
REMARK  168  A    between atoms: _429  and  _431
REMARK  169  A    between atoms: _431  and  _432
REMARK  170  A    between atoms: _431  and  _434
REMARK  171  A    between atoms: _434  and  _435
REMARK  172  A    between atoms: _438  and  _440
REMARK  173  A    between atoms: _440  and  _441
REMARK  174  A    between atoms: _440  and  _443
REMARK  175  A    between atoms: _443  and  _444
REMARK  176  A    between atoms: _447  and  _449
REMARK  177  A    between atoms: _449  and  _450
REMARK  178  A    between atoms: _449  and  _452
REMARK  179  A    between atoms: _452  and  _453
REMARK  180  A    between atoms: _456  and  _458
REMARK  181  A    between atoms: _458  and  _459
REMARK  182  A    between atoms: _458  and  _461
REMARK  183  A    between atoms: _461  and  _462
REMARK  184  A    between atoms: _462  and  _463
REMARK  185  A    between atoms: _463  and  _464
REMARK  186  A    between atoms: _473  and  _475
REMARK  187  A    between atoms: _475  and  _476
REMARK  188  A    between atoms: _475  and  _478
REMARK  189  A    between atoms: _481  and  _483
REMARK  190  A    between atoms: _483  and  _484
REMARK  191  A    between atoms: _483  and  _486
REMARK  192  A    between atoms: _486  and  _487
REMARK  193  A    between atoms: _492  and  _493
REMARK  194  A    between atoms: _495  and  _497
REMARK  195  A    between atoms: _497  and  _498
REMARK  196  A    between atoms: _497  and  _500
REMARK  197  A    between atoms: _500  and  _501
REMARK  198  A    between atoms: _503  and  _505
REMARK  199  A    between atoms: _505  and  _506
REMARK  200  A    between atoms: _505  and  _508
REMARK  201  A    between atoms: _508  and  _509
REMARK  202  A    between atoms: _514  and  _516
REMARK  203  A    between atoms: _516  and  _517
REMARK  204  A    between atoms: _516  and  _519
REMARK  205  A    between atoms: _519  and  _520
REMARK  206  A    between atoms: _522  and  _524
REMARK  207  A    between atoms: _524  and  _525
REMARK  208  A    between atoms: _524  and  _527
REMARK  209  A    between atoms: _527  and  _528
REMARK  210  A    between atoms: _528  and  _529
REMARK  211  A    between atoms: _532  and  _534
REMARK  212  A    between atoms: _534  and  _535
REMARK  213  A    between atoms: _534  and  _537
REMARK  214  A    between atoms: _537  and  _538
REMARK  215  A    between atoms: _543  and  _544
REMARK  216  A    between atoms: _546  and  _548
REMARK  217  A    between atoms: _548  and  _549
REMARK  218  A    between atoms: _552  and  _554
REMARK  219  A    between atoms: _554  and  _555
REMARK  220  A    between atoms: _554  and  _557
REMARK  221  A    between atoms: _557  and  _558
REMARK  222  A    between atoms: _562  and  _563
REMARK  223  A    between atoms: _568  and  _570
REMARK  224  A    between atoms: _570  and  _571
REMARK  225  A    between atoms: _570  and  _573
REMARK  226  A    between atoms: _573  and  _574
REMARK  227  A    between atoms: _577  and  _579
REMARK  228  A    between atoms: _579  and  _580
REMARK  229  A    between atoms: _579  and  _582
REMARK  230  A    between atoms: _582  and  _583
REMARK  231  A    between atoms: _583  and  _584
REMARK  232  A    between atoms: _589  and  _591
REMARK  233  A    between atoms: _591  and  _592
REMARK  234  A    between atoms: _591  and  _594
REMARK  235  A    between atoms: _594  and  _595
REMARK  236  A    between atoms: _598  and  _600
REMARK  237  A    between atoms: _600  and  _601
REMARK  238  A    between atoms: _600  and  _603
REMARK  239  A    between atoms: _603  and  _604
REMARK  240  A    between atoms: _607  and  _609
REMARK  241  A    between atoms: _609  and  _610
REMARK  242  A    between atoms: _609  and  _612
REMARK  243  A    between atoms: _612  and  _613
REMARK                            x       y       z     vdW  Elec       q    Type
REMARK                         _______ _______ _______ _____ _____    ______ ____
ROOT
ATOM      1  CB  PHE A   1      14.790  13.655  31.326  0.00  0.00    +0.051 C 
ENDROOT
BRANCH   1   2
ATOM      2  CG  PHE A   1      14.426  14.049  29.911  0.00  0.00    -0.020 A 
ATOM      3  CD2 PHE A   1      14.634  15.351  29.453  0.00  0.00    -0.004 A 
ATOM      4  CE2 PHE A   1      14.310  15.713  28.150  0.00  0.00    -0.000 A 
ATOM      5  CZ  PHE A   1      13.762  14.779  27.283  0.00  0.00    -0.000 A 
ATOM      6  CE1 PHE A   1      13.564  13.474  27.719  0.00  0.00    -0.000 A 
ATOM      7  CD1 PHE A   1      13.898  13.116  29.031  0.00  0.00    -0.004 A 
ENDBRANCH   1   2
BRANCH   1   8
ATOM      8  CA  PHE A   1      13.734  14.039  32.378  0.00  0.00    +0.137 C 
BRANCH   8   9
ATOM      9  N   PHE A   1      14.137  13.562  33.696  0.00  0.00    -0.239 NA
ATOM     10  H   PHE A   1      15.024  13.028  33.792  0.00  0.00    +0.142 HD
ENDBRANCH   8   9
BRANCH   8  11
ATOM     11  C   PHE A   1      12.343  13.513  32.005  0.00  0.00    +0.224 C 
ATOM     12  O   PHE A   1      11.464  14.302  31.622  0.00  0.00    -0.287 OA
ENDBRANCH   8  11
ENDBRANCH   1   8
TORSDOF 4
REMARK  Name = ../refined-set-2016/4f5y/4f5y_pocket.pdb
REMARK  243 active torsions:
REMARK  status: ('A' for Active; 'I' for Inactive)
REMARK    1  A    between atoms: _1  and  _3
REMARK    2  A    between atoms: _3  and  _4
REMARK    3  A    between atoms: _6  and  _8
REMARK    4  A    between atoms: _8  and  _9
REMARK    5  A    between atoms: _8  and  _11
REMARK    6  A    between atoms: _11  and  _12
REMARK    7  A    between atoms: _15  and  _17
REMARK    8  A    between atoms: _17  and  _18
REMARK    9  A    between atoms: _21  and  _23
REMARK   10  A    between atoms: _23  and  _24
REMARK   11  A    between atoms: _23  and  _26
REMARK   12  A    between atoms: _26  and  _27
REMARK   13  A    between atoms: _37  and  _39
REMARK   14  A    between atoms: _39  and  _40
REMARK   15  A    between atoms: _39  and  _42
REMARK   16  A    between atoms: _42  and  _43
REMARK   17  A    between atoms: _45  and  _47
REMARK   18  A    between atoms: _47  and  _48
REMARK   19  A    between atoms: _47  and  _50
REMARK   20  A    between atoms: _50  and  _51
REMARK   21  A    between atoms: _56  and  _57
REMARK   22  A    between atoms: _59  and  _61
REMARK   23  A    between atoms: _61  and  _62
REMARK   24  A    between atoms: _61  and  _64
REMARK   25  A    between atoms: _64  and  _65
REMARK   26  A    between atoms: _70  and  _71
REMARK   27  A    between atoms: _73  and  _75
REMARK   28  A    between atoms: _75  and  _76
REMARK   29  A    between atoms: _75  and  _78
REMARK   30  A    between atoms: _78  and  _79
REMARK   31  A    between atoms: _82  and  _84
REMARK   32  A    between atoms: _84  and  _85
REMARK   33  A    between atoms: _87  and  _89
REMARK   34  A    between atoms: _89  and  _90
REMARK   35  A    between atoms: _89  and  _92
REMARK   36  A    between atoms: _92  and  _93
REMARK   37  A    between atoms: _98  and  _99
REMARK   38  A    between atoms: _101  and  _103
REMARK   39  A    between atoms: _103  and  _104
REMARK   40  A    between atoms: _103  and  _106
REMARK   41  A    between atoms: _106  and  _107
REMARK   42  A    between atoms: _110  and  _112
REMARK   43  A    between atoms: _112  and  _113
REMARK   44  A    between atoms: _112  and  _115
REMARK   45  A    between atoms: _115  and  _116
REMARK   46  A    between atoms: _119  and  _121
REMARK   47  A    between atoms: _121  and  _122
REMARK   48  A    between atoms: _121  and  _124
REMARK   49  A    between atoms: _124  and  _125
REMARK   50  A    between atoms: _128  and  _130
REMARK   51  A    between atoms: _130  and  _131
REMARK   52  A    between atoms: _130  and  _133
REMARK   53  A    between atoms: _133  and  _134
REMARK   54  A    between atoms: _137  and  _139
REMARK   55  A    between atoms: _139  and  _140
REMARK   56  A    between atoms: _139  and  _142
REMARK   57  A    between atoms: _142  and  _143
REMARK   58  A    between atoms: _143  and  _144
REMARK   59  A    between atoms: _144  and  _145
REMARK   60  A    between atoms: _145  and  _146
REMARK   61  A    between atoms: _150  and  _152
REMARK   62  A    between atoms: _152  and  _153
REMARK   63  A    between atoms: _152  and  _155
REMARK   64  A    between atoms: _155  and  _156
REMARK   65  A    between atoms: _159  and  _161
REMARK   66  A    between atoms: _161  and  _162
REMARK   67  A    between atoms: _161  and  _164
REMARK   68  A    between atoms: _164  and  _165
REMARK   69  A    between atoms: _165  and  _166
REMARK   70  A    between atoms: _166  and  _167
REMARK   71  A    between atoms: _176  and  _178
REMARK   72  A    between atoms: _178  and  _179
REMARK   73  A    between atoms: _178  and  _181
REMARK   74  A    between atoms: _184  and  _186
REMARK   75  A    between atoms: _186  and  _187
REMARK   76  A    between atoms: _186  and  _189
REMARK   77  A    between atoms: _189  and  _190
REMARK   78  A    between atoms: _195  and  _196
REMARK   79  A    between atoms: _198  and  _200
REMARK   80  A    between atoms: _200  and  _201
REMARK   81  A    between atoms: _200  and  _203
REMARK   82  A    between atoms: _203  and  _204
REMARK   83  A    between atoms: _206  and  _208
REMARK   84  A    between atoms: _208  and  _209
REMARK   85  A    between atoms: _208  and  _211
REMARK   86  A    between atoms: _211  and  _212
REMARK   87  A    between atoms: _212  and  _213
REMARK   88  A    between atoms: _216  and  _218
REMARK   89  A    between atoms: _218  and  _219
REMARK   90  A    between atoms: _218  and  _221
REMARK   91  A    between atoms: _221  and  _222
REMARK   92  A    between atoms: _227  and  _228
REMARK   93  A    between atoms: _230  and  _232
REMARK   94  A    between atoms: _232  and  _233
REMARK   95  A    between atoms: _236  and  _238
REMARK   96  A    between atoms: _238  and  _239
REMARK   97  A    between atoms: _238  and  _241
REMARK   98  A    between atoms: _241  and  _242
REMARK   99  A    between atoms: _246  and  _247
REMARK  100  A    between atoms: _252  and  _254
REMARK  101  A    between atoms: _254  and  _255
REMARK  102  A    between atoms: _254  and  _257
REMARK  103  A    between atoms: _257  and  _258
REMARK  104  A    between atoms: _261  and  _263
REMARK  105  A    between atoms: _263  and  _264
REMARK  106  A    between atoms: _263  and  _266
REMARK  107  A    between atoms: _266  and  _267
REMARK  108  A    between atoms: _267  and  _268
REMARK  109  A    between atoms: _273  and  _275
REMARK  110  A    between atoms: _275  and  _276
REMARK  111  A    between atoms: _275  and  _278
REMARK  112  A    between atoms: _278  and  _279
REMARK  113  A    between atoms: _282  and  _284
REMARK  114  A    between atoms: _284  and  _285
REMARK  115  A    between atoms: _284  and  _287
REMARK  116  A    between atoms: _287  and  _288
REMARK  117  A    between atoms: _294  and  _296
REMARK  118  A    between atoms: _296  and  _297
REMARK  119  A    between atoms: _299  and  _301
REMARK  120  A    between atoms: _301  and  _302
REMARK  121  A    between atoms: _301  and  _304
REMARK  122  A    between atoms: _304  and  _305
REMARK  123  A    between atoms: _308  and  _310
REMARK  124  A    between atoms: _310  and  _311
REMARK  125  A    between atoms: _314  and  _316
REMARK  126  A    between atoms: _316  and  _317
REMARK  127  A    between atoms: _316  and  _319
REMARK  128  A    between atoms: _319  and  _320
REMARK  129  A    between atoms: _330  and  _332
REMARK  130  A    between atoms: _332  and  _333
REMARK  131  A    between atoms: _332  and  _335
REMARK  132  A    between atoms: _335  and  _336
REMARK  133  A    between atoms: _338  and  _340
REMARK  134  A    between atoms: _340  and  _341
REMARK  135  A    between atoms: _340  and  _343
REMARK  136  A    between atoms: _343  and  _344
REMARK  137  A    between atoms: _349  and  _350
REMARK  138  A    between atoms: _352  and  _354
REMARK  139  A    between atoms: _354  and  _355
REMARK  140  A    between atoms: _354  and  _357
REMARK  141  A    between atoms: _357  and  _358
REMARK  142  A    between atoms: _363  and  _364
REMARK  143  A    between atoms: _366  and  _368
REMARK  144  A    between atoms: _368  and  _369
REMARK  145  A    between atoms: _368  and  _371
REMARK  146  A    between atoms: _371  and  _372
REMARK  147  A    between atoms: _375  and  _377
REMARK  148  A    between atoms: _377  and  _378
REMARK  149  A    between atoms: _380  and  _382
REMARK  150  A    between atoms: _382  and  _383
REMARK  151  A    between atoms: _382  and  _385
REMARK  152  A    between atoms: _385  and  _386
REMARK  153  A    between atoms: _391  and  _392
REMARK  154  A    between atoms: _394  and  _396
REMARK  155  A    between atoms: _396  and  _397
REMARK  156  A    between atoms: _396  and  _399
REMARK  157  A    between atoms: _399  and  _400
REMARK  158  A    between atoms: _403  and  _405
REMARK  159  A    between atoms: _405  and  _406
REMARK  160  A    between atoms: _405  and  _408
REMARK  161  A    between atoms: _408  and  _409
REMARK  162  A    between atoms: _409  and  _410
REMARK  163  A    between atoms: _410  and  _411
REMARK  164  A    between atoms: _420  and  _422
REMARK  165  A    between atoms: _422  and  _423
REMARK  166  A    between atoms: _422  and  _425
REMARK  167  A    between atoms: _425  and  _426
REMARK  168  A    between atoms: _429  and  _431
REMARK  169  A    between atoms: _431  and  _432
REMARK  170  A    between atoms: _431  and  _434
REMARK  171  A    between atoms: _434  and  _435
REMARK  172  A    between atoms: _438  and  _440
REMARK  173  A    between atoms: _440  and  _441
REMARK  174  A    between atoms: _440  and  _443
REMARK  175  A    between atoms: _443  and  _444
REMARK  176  A    between atoms: _447  and  _449
REMARK  177  A    between atoms: _449  and  _450
REMARK  178  A    between atoms: _449  and  _452
REMARK  179  A    between atoms: _452  and  _453
REMARK  180  A    between atoms: _456  and  _458
REMARK  181  A    between atoms: _458  and  _459
REMARK  182  A    between atoms: _458  and  _461
REMARK  183  A    between atoms: _461  and  _462
REMARK  184  A    between atoms: _462  and  _463
REMARK  185  A    between atoms: _463  and  _464
REMARK  186  A    between atoms: _473  and  _475
REMARK  187  A    between atoms: _475  and  _476
REMARK  188  A    between atoms: _475  and  _478
REMARK  189  A    between atoms: _481  and  _483
REMARK  190  A    between atoms: _483  and  _484
REMARK  191  A    between atoms: _483  and  _486
REMARK  192  A    between atoms: _486  and  _487
REMARK  193  A    between atoms: _492  and  _493
REMARK  194  A    between atoms: _495  and  _497
REMARK  195  A    between atoms: _497  and  _498
REMARK  196  A    between atoms: _497  and  _500
REMARK  197  A    between atoms: _500  and  _501
REMARK  198  A    between atoms: _503  and  _505
REMARK  199  A    between atoms: _505  and  _506
REMARK  200  A    between atoms: _505  and  _508
REMARK  201  A    between atoms: _508  and  _509
REMARK  202  A    between atoms: _514  and  _516
REMARK  203  A    between atoms: _516  and  _517
REMARK  204  A    between atoms: _516  and  _519
REMARK  205  A    between atoms: _519  and  _520
REMARK  206  A    between atoms: _522  and  _524
REMARK  207  A    between atoms: _524  and  _525
REMARK  208  A    between atoms: _524  and  _527
REMARK  209  A    between atoms: _527  and  _528
REMARK  210  A    between atoms: _528  and  _529
REMARK  211  A    between atoms: _532  and  _534
REMARK  212  A    between atoms: _534  and  _535
REMARK  213  A    between atoms: _534  and  _537
REMARK  214  A    between atoms: _537  and  _538
REMARK  215  A    between atoms: _543  and  _544
REMARK  216  A    between atoms: _546  and  _548
REMARK  217  A    between atoms: _548  and  _549
REMARK  218  A    between atoms: _552  and  _554
REMARK  219  A    between atoms: _554  and  _555
REMARK  220  A    between atoms: _554  and  _557
REMARK  221  A    between atoms: _557  and  _558
REMARK  222  A    between atoms: _562  and  _563
REMARK  223  A    between atoms: _568  and  _570
REMARK  224  A    between atoms: _570  and  _571
REMARK  225  A    between atoms: _570  and  _573
REMARK  226  A    between atoms: _573  and  _574
REMARK  227  A    between atoms: _577  and  _579
REMARK  228  A    between atoms: _579  and  _580
REMARK  229  A    between atoms: _579  and  _582
REMARK  230  A    between atoms: _582  and  _583
REMARK  231  A    between atoms: _583  and  _584
REMARK  232  A    between atoms: _589  and  _591
REMARK  233  A    between atoms: _591  and  _592
REMARK  234  A    between atoms: _591  and  _594
REMARK  235  A    between atoms: _594  and  _595
REMARK  236  A    between atoms: _598  and  _600
REMARK  237  A    between atoms: _600  and  _601
REMARK  238  A    between atoms: _600  and  _603
REMARK  239  A    between atoms: _603  and  _604
REMARK  240  A    between atoms: _607  and  _609
REMARK  241  A    between atoms: _609  and  _610
REMARK  242  A    between atoms: _609  and  _612
REMARK  243  A    between atoms: _612  and  _613
REMARK                            x       y       z     vdW  Elec       q    Type
REMARK                         _______ _______ _______ _____ _____    ______ ____
ROOT
ATOM      1  C   TYR A   7      27.794  22.126  24.550  0.00  0.00    +0.241 C 
ATOM      2  N   ILE A   8      27.112  21.139  25.128  0.00  0.00    -0.297 N 
ATOM      3  H   ILE A   8      26.518  21.341  25.958  0.00  0.00    +0.150 HD
ATOM      4  O   TYR A   7      28.461  21.963  23.522  0.00  0.00    -0.273 OA
ENDROOT
BRANCH   2   5
ATOM      5  CA  ILE A   8      27.189  19.768  24.607  0.00  0.00    +0.149 C 
BRANCH   5   6
ATOM      6  C   ILE A   8      26.661  19.619  23.177  0.00  0.00    +0.241 C 
ATOM      7  N   GLY A   9      25.471  20.149  22.920  0.00  0.00    -0.295 N 
ATOM      8  H   GLY A   9      25.002  20.728  23.646  0.00  0.00    +0.150 HD
ATOM      9  O   ILE A   8      27.333  19.047  22.320  0.00  0.00    -0.273 OA
BRANCH   7  10
ATOM     10  CA  GLY A   9      24.812  19.935  21.642  0.00  0.00    +0.176 C 
BRANCH  10  11
ATOM     11  C   GLY A   9      25.169  20.932  20.556  0.00  0.00    +0.243 C 
ATOM     12  N   TYR A  10      26.003  21.921  20.883  0.00  0.00    -0.297 N 
ATOM     13  H   TYR A  10      26.436  21.950  21.828  0.00  0.00    +0.150 HD
ATOM     14  O   GLY A   9      24.699  20.802  19.422  0.00  0.00    -0.273 OA
BRANCH  12  15
ATOM     15  CA  TYR A  10      26.302  22.960  19.907  0.00  0.00    +0.153 C 
BRANCH  15  16
ATOM     16  C   TYR A  10      27.731  23.506  19.969  0.00  0.00    +0.241 C 
ATOM     17  N   LEU A  11      28.115  24.165  21.062  0.00  0.00    -0.297 N 
ATOM     18  H   LEU A  11      27.475  24.226  21.879  0.00  0.00    +0.150 HD
ATOM     19  O   TYR A  10      28.473  23.327  19.018  0.00  0.00    -0.273 OA
BRANCH  17  20
ATOM     20  CA  LEU A  11      29.431  24.803  21.121  0.00  0.00    +0.149 C 
BRANCH  20  21
ATOM     21  C   LEU A  11      30.599  23.816  20.992  0.00  0.00    +0.241 C 
ATOM     22  N   ARG A  12      30.517  22.698  21.709  0.00  0.00    -0.297 N 
ATOM     23  H   ARG A  12      29.703  22.563  22.342  0.00  0.00    +0.150 HD
ATOM     24  O   LEU A  11      31.543  24.060  20.236  0.00  0.00    -0.273 OA
BRANCH  22  25
ATOM     25  CA  ARG A  12      31.535  21.656  21.633  0.00  0.00    +0.149 C 
BRANCH  25  26
ATOM     26  C   ARG A  12      31.747  21.149  20.208  0.00  0.00    +0.241 C 
ATOM     27  O   ARG A  12      32.829  20.713  19.868  0.00  0.00    -0.273 OA
ATOM     28  N   LEU A  13      30.706  21.199  19.386  0.00  0.00    -0.297 N 
ATOM     29  H   LEU A  13      29.825  21.643  19.713  0.00  0.00    +0.150 HD
BRANCH  28  30
ATOM     30  CA  LEU A  13      30.763  20.649  18.038  0.00  0.00    +0.149 C 
BRANCH  30  31
ATOM     31  C   LEU A  13      31.206  21.660  16.974  0.00  0.00    +0.241 C 
ATOM     32  N   ILE A  14      30.934  22.943  17.212  0.00  0.00    -0.298 N 
ATOM     33  H   ILE A  14      30.549  23.221  18.137  0.00  0.00    +0.150 HD
ATOM     34  O   LEU A  13      31.784  21.279  15.949  0.00  0.00    -0.273 OA
BRANCH  32  35
ATOM     35  CA  ILE A  14      31.168  23.967  16.194  0.00  0.00    +0.137 C 
BRANCH  35  36
ATOM     36  C   ILE A  14      32.516  24.656  16.400  0.00  0.00    +0.227 C 
ATOM     37  O   ILE A  14      33.202  25.018  15.437  0.00  0.00    -0.286 OA
ENDBRANCH  35  36
BRANCH  35  38
ATOM     38  CB  ILE A  14      29.957  24.977  16.103  0.00  0.00    +0.026 C 
ATOM     39  CG2 ILE A  14      29.817  25.811  17.379  0.00  0.00    +0.002 C 
BRANCH  38  40
ATOM     40  CG1 ILE A  14      30.043  25.869  14.860  0.00  0.00    +0.002 C 
ATOM     41  CD1 ILE A  14      30.794  27.198  15.069  0.00  0.00    +0.000 C 
ENDBRANCH  38  40
ENDBRANCH  35  38
ENDBRANCH  32  35
ENDBRANCH  30  31
BRANCH  30  42
ATOM     42  CB  LEU A  13      29.386  20.088  17.660  0.00  0.00    +0.029 C 
BRANCH  42  43
ATOM     43  CG  LEU A  13      28.933  18.686  18.115  0.00  0.00    +0.002 C 
ATOM     44  CD2 LEU A  13      29.842  18.063  19.186  0.00  0.00    +0.000 C 
ATOM     45  CD1 LEU A  13      27.501  18.737  18.598  0.00  0.00    +0.000 C 
ENDBRANCH  42  43
ENDBRANCH  30  42
ENDBRANCH  28  30
ENDBRANCH  25  26
BRANCH  25  46
ATOM     46  CB  ARG A  12      31.135  20.457  22.507  0.00  0.00    +0.033 C 
BRANCH  46  47
ATOM     47  CG  ARG A  12      32.291  19.844  23.248  0.00  0.00    +0.045 C 
BRANCH  47  48
ATOM     48  CD  ARG A  12      31.950  18.486  23.834  0.00  0.00    +0.174 C 
BRANCH  48  49
ATOM     49  NE  ARG A  12      30.785  17.886  23.185  0.00  0.00    -0.265 N 
ATOM     50  CZ  ARG A  12      30.349  16.656  23.440  0.00  0.00    +0.342 C 
ATOM     51  NH2 ARG A  12      30.995  15.899  24.326  0.00  0.00    -0.292 N 
ATOM     52 HH21 ARG A  12      31.835  16.271  24.813  0.00  0.00    +0.255 HD
ATOM     53 HH22 ARG A  12      30.659  14.936  24.530  0.00  0.00    +0.255 HD
ATOM     54  NH1 ARG A  12      29.276  16.186  22.814  0.00  0.00    -0.292 N 
ATOM     55 HH11 ARG A  12      28.937  15.224  23.015  0.00  0.00    +0.255 HD
ATOM     56 HH12 ARG A  12      28.775  16.780  22.123  0.00  0.00    +0.255 HD
ATOM     57  HE  ARG A  12      30.268  18.454  22.484  0.00  0.00    +0.259 HD
ENDBRANCH  48  49
ENDBRANCH  47  48
ENDBRANCH  46  47
ENDBRANCH  25  46
ENDBRANCH  22  25
ENDBRANCH  20  21
BRANCH  20  58
ATOM     58  CB  LEU A  11      29.584  25.670  22.375  0.00  0.00    +0.029 C 
BRANCH  58  59
ATOM     59  CG  LEU A  11      28.647  26.889  22.441  0.00  0.00    +0.002 C 
ATOM     60  CD2 LEU A  11      28.883  27.668  23.722  0.00  0.00    +0.000 C 
ATOM     61  CD1 LEU A  11      28.781  27.802  21.202  0.00  0.00    +0.000 C 
ENDBRANCH  58  59
ENDBRANCH  20  58
ENDBRANCH  17  20
ENDBRANCH  15  16
BRANCH  15  62
ATOM     62  CB  TYR A  10      25.268  24.091  19.953  0.00  0.00    +0.055 C 
BRANCH  62  63
ATOM     63  CG  TYR A  10      25.557  25.216  18.970  0.00  0.00    -0.020 A 
ATOM     64  CD2 TYR A  10      25.895  26.488  19.420  0.00  0.00    -0.001 A 
ATOM     65  CE2 TYR A  10      26.163  27.521  18.526  0.00  0.00    +0.036 A 
ATOM     66  CZ  TYR A  10      26.077  27.284  17.163  0.00  0.00    +0.134 A 
ATOM     67  CE1 TYR A  10      25.735  26.027  16.696  0.00  0.00    +0.036 A 
ATOM     68  CD1 TYR A  10      25.474  25.007  17.597  0.00  0.00    -0.001 A 
BRANCH  66  69
ATOM     69  OH  TYR A  10      26.343  28.298  16.263  0.00  0.00    -0.506 OA
ATOM     70  HH  TYR A  10      25.713  29.046  16.415  0.00  0.00    +0.292 HD
ENDBRANCH  66  69
ENDBRANCH  62  63
ENDBRANCH  15  62
ENDBRANCH  12  15
ENDBRANCH  10  11
ENDBRANCH   7  10
ENDBRANCH   5   6
BRANCH   5  71
ATOM     71  CB  ILE A   8      26.468  18.763  25.530  0.00  0.00    +0.027 C 
ATOM     72  CG2 ILE A   8      26.353  17.379  24.865  0.00  0.00    +0.002 C 
BRANCH  71  73
ATOM     73  CG1 ILE A   8      27.170  18.698  26.883  0.00  0.00    +0.002 C 
ATOM     74  CD1 ILE A   8      28.610  18.124  26.824  0.00  0.00    +0.000 C 
ENDBRANCH  71  73
ENDBRANCH   5  71
ENDBRANCH   2   5
BRANCH   1  75
ATOM     75  CA  TYR A   7      27.692  23.511  25.198  0.00  0.00    +0.153 C 
BRANCH  75  77
ATOM     76  C   TYR A   6      25.571  24.234  24.329  0.00  0.00    +0.241 C 
ATOM     77  N   TYR A   7      26.292  23.877  25.379  0.00  0.00    -0.297 N 
ATOM     78  H   TYR A   7      25.864  23.857  26.326  0.00  0.00    +0.150 HD
ATOM     79  O   TYR A   6      26.060  24.364  23.213  0.00  0.00    -0.273 OA
BRANCH  76  80
ATOM     80  CA  TYR A   6      24.095  24.539  24.569  0.00  0.00    +0.153 C 
BRANCH  80  82
ATOM     81  C   SER A   5      23.324  22.336  25.289  0.00  0.00    +0.243 C 
ATOM     82  N   TYR A   6      23.529  23.627  25.546  0.00  0.00    -0.297 N 
ATOM     83  H   TYR A   6      23.273  23.996  26.484  0.00  0.00    +0.150 HD
ATOM     84  O   SER A   5      23.606  21.803  24.208  0.00  0.00    -0.273 OA
BRANCH  81  85
ATOM     85  CA  SER A   5      22.710  21.523  26.425  0.00  0.00    +0.178 C 
BRANCH  85  87
ATOM     86  C   TRP A   4      24.496  21.773  28.065  0.00  0.00    +0.241 C 
ATOM     87  N   SER A   5      23.232  21.958  27.712  0.00  0.00    -0.295 N 
ATOM     88  H   SER A   5      22.590  22.431  28.379  0.00  0.00    +0.150 HD
ATOM     89  O   TRP A   4      25.332  21.258  27.326  0.00  0.00    -0.273 OA
BRANCH  86  90
ATOM     90  CA  TRP A   4      24.871  22.280  29.453  0.00  0.00    +0.153 C 
BRANCH  90  92
ATOM     91  C   ALA A   3      24.444  24.621  29.050  0.00  0.00    +0.241 C 
ATOM     92  N   TRP A   4      24.181  23.539  29.771  0.00  0.00    -0.297 N 
ATOM     93  H   TRP A   4      23.495  23.581  30.552  0.00  0.00    +0.150 HD
ATOM     94  O   ALA A   3      25.266  24.599  28.119  0.00  0.00    -0.273 OA
BRANCH  91  95
ATOM     95  CA  ALA A   3      23.661  25.902  29.389  0.00  0.00    +0.149 C 
ATOM     96  CB  ALA A   3      24.283  26.636  30.584  0.00  0.00    +0.031 C 
BRANCH  95  98
ATOM     97  C   LEU A   2      21.470  25.258  28.623  0.00  0.00    +0.241 C 
ATOM     98  N   ALA A   3      22.253  25.624  29.631  0.00  0.00    -0.297 N 
ATOM     99  H   ALA A   3      21.861  25.712  30.590  0.00  0.00    +0.150 HD
ATOM    100  O   LEU A   2      21.888  25.154  27.477  0.00  0.00    -0.273 OA
BRANCH  97 101
ATOM    101  CA  LEU A   2      19.998  24.964  28.936  0.00  0.00    +0.149 C 
BRANCH 101 103
ATOM    102  C   GLY A   1      20.390  22.949  30.247  0.00  0.00    +0.240 C 
ATOM    103  N   LEU A   2      19.813  24.138  30.134  0.00  0.00    -0.297 N 
ATOM    104  H   LEU A   2      19.218  24.492  30.910  0.00  0.00    +0.150 HD
ATOM    105  O   GLY A   1      21.001  22.420  29.326  0.00  0.00    -0.274 OA
BRANCH 102 106
ATOM    106  CA  GLY A   1      20.260  22.249  31.585  0.00  0.00    +0.169 C 
BRANCH 106 107
ATOM    107  N   GLY A   1      20.343  23.157  32.711  0.00  0.00    -0.236 NA
ATOM    108  H   GLY A   1      19.506  23.305  33.310  0.00  0.00    +0.142 HD
ENDBRANCH 106 107
ENDBRANCH 102 106
ENDBRANCH 101 103
BRANCH 101 109
ATOM    109  CB  LEU A   2      19.240  26.288  29.066  0.00  0.00    +0.029 C 
BRANCH 109 110
ATOM    110  CG  LEU A   2      17.716  26.196  29.142  0.00  0.00    +0.002 C 
ATOM    111  CD2 LEU A   2      17.100  27.588  29.225  0.00  0.00    +0.000 C 
ATOM    112  CD1 LEU A   2      17.188  25.440  27.933  0.00  0.00    +0.000 C 
ENDBRANCH 109 110
ENDBRANCH 101 109
ENDBRANCH  97 101
ENDBRANCH  95  98
ENDBRANCH  91  95
ENDBRANCH  90  92
BRANCH  90 113
ATOM    113  CB  TRP A   4      24.593  21.217  30.516  0.00  0.00    +0.057 C 
BRANCH 113 114
ATOM    114  CG  TRP A   4      25.582  21.311  31.622  0.00  0.00    -0.002 A 
ATOM    115  CD1 TRP A   4      25.379  21.839  32.863  0.00  0.00    +0.068 A 
ATOM    116  NE1 TRP A   4      26.541  21.769  33.600  0.00  0.00    -0.352 N 
ATOM    117  HE1 TRP A   4      26.654  22.095  34.581  0.00  0.00    +0.166 HD
ATOM    118  CE2 TRP A   4      27.524  21.201  32.833  0.00  0.00    +0.056 A 
ATOM    119  CZ2 TRP A   4      28.864  20.918  33.143  0.00  0.00    +0.017 A 
ATOM    120  CH2 TRP A   4      29.634  20.350  32.169  0.00  0.00    +0.001 A 
ATOM    121  CZ3 TRP A   4      29.109  20.055  30.901  0.00  0.00    +0.000 A 
ATOM    122  CE3 TRP A   4      27.769  20.323  30.594  0.00  0.00    +0.001 A 
ATOM    123  CD2 TRP A   4      26.962  20.908  31.574  0.00  0.00    +0.013 A 
ENDBRANCH 113 114
ENDBRANCH  90 113
ENDBRANCH  86  90
ENDBRANCH  85  87
BRANCH  85 124
ATOM    124  CB  SER A   5      21.181  21.664  26.432  0.00  0.00    +0.166 C 
BRANCH 124 125
ATOM    125  OG  SER A   5      20.620  21.314  25.197  0.00  0.00    -0.380 OA
ATOM    126  H   SER A   5      20.845  20.373  24.989  0.00  0.00    +0.211 HD
ENDBRANCH 124 125
ENDBRANCH  85 124
ENDBRANCH  81  85
ENDBRANCH  80  82
BRANCH  80 127
ATOM    127  CB  TYR A   6      23.938  25.992  25.056  0.00  0.00    +0.055 C 
BRANCH 127 128
ATOM    128  CG  TYR A   6      24.334  27.071  24.063  0.00  0.00    -0.020 A 
ATOM    129  CD2 TYR A   6      25.270  28.042  24.404  0.00  0.00    -0.001 A 
ATOM    130  CE2 TYR A   6      25.622  29.069  23.519  0.00  0.00    +0.036 A 
ATOM    131  CZ  TYR A   6      25.010  29.134  22.290  0.00  0.00    +0.134 A 
ATOM    132  CE1 TYR A   6      24.058  28.176  21.926  0.00  0.00    +0.036 A 
ATOM    133  CD1 TYR A   6      23.725  27.158  22.821  0.00  0.00    -0.001 A 
BRANCH 131 134
ATOM    134  OH  TYR A   6      25.351  30.133  21.403  0.00  0.00    -0.506 OA
ATOM    135  HH  TYR A   6      24.819  30.032  20.574  0.00  0.00    +0.292 HD
ENDBRANCH 131 134
ENDBRANCH 127 128
ENDBRANCH  80 127
ENDBRANCH  76  80
ENDBRANCH  75  77
BRANCH  75 136
ATOM    136  CB  TYR A   7      28.473  23.577  26.523  0.00  0.00    +0.055 C 
BRANCH 136 137
ATOM    137  CG  TYR A   7      29.853  22.963  26.441  0.00  0.00    -0.020 A 
ATOM    138  CD2 TYR A   7      30.103  21.709  26.976  0.00  0.00    -0.001 A 
ATOM    139  CE2 TYR A   7      31.365  21.135  26.907  0.00  0.00    +0.036 A 
ATOM    140  CZ  TYR A   7      32.393  21.811  26.288  0.00  0.00    +0.134 A 
ATOM    141  CE1 TYR A   7      32.178  23.066  25.745  0.00  0.00    +0.036 A 
ATOM    142  CD1 TYR A   7      30.911  23.636  25.823  0.00  0.00    -0.001 A 
BRANCH 140 143
ATOM    143  OH  TYR A   7      33.639  21.213  26.229  0.00  0.00    -0.506 OA
ATOM    144  HH  TYR A   7      33.599  20.326  26.666  0.00  0.00    +0.292 HD
ENDBRANCH 140 143
ENDBRANCH 136 137
ENDBRANCH  75 136
ENDBRANCH   1  75
TORSDOF 55
REMARK  Name = ../refined-set-2016/4f5y/4f5y_pocket.pdb
REMARK  243 active torsions:
REMARK  status: ('A' for Active; 'I' for Inactive)
REMARK    1  A    between atoms: _1  and  _3
REMARK    2  A    between atoms: _3  and  _4
REMARK    3  A    between atoms: _6  and  _8
REMARK    4  A    between atoms: _8  and  _9
REMARK    5  A    between atoms: _8  and  _11
REMARK    6  A    between atoms: _11  and  _12
REMARK    7  A    between atoms: _15  and  _17
REMARK    8  A    between atoms: _17  and  _18
REMARK    9  A    between atoms: _21  and  _23
REMARK   10  A    between atoms: _23  and  _24
REMARK   11  A    between atoms: _23  and  _26
REMARK   12  A    between atoms: _26  and  _27
REMARK   13  A    between atoms: _37  and  _39
REMARK   14  A    between atoms: _39  and  _40
REMARK   15  A    between atoms: _39  and  _42
REMARK   16  A    between atoms: _42  and  _43
REMARK   17  A    between atoms: _45  and  _47
REMARK   18  A    between atoms: _47  and  _48
REMARK   19  A    between atoms: _47  and  _50
REMARK   20  A    between atoms: _50  and  _51
REMARK   21  A    between atoms: _56  and  _57
REMARK   22  A    between atoms: _59  and  _61
REMARK   23  A    between atoms: _61  and  _62
REMARK   24  A    between atoms: _61  and  _64
REMARK   25  A    between atoms: _64  and  _65
REMARK   26  A    between atoms: _70  and  _71
REMARK   27  A    between atoms: _73  and  _75
REMARK   28  A    between atoms: _75  and  _76
REMARK   29  A    between atoms: _75  and  _78
REMARK   30  A    between atoms: _78  and  _79
REMARK   31  A    between atoms: _82  and  _84
REMARK   32  A    between atoms: _84  and  _85
REMARK   33  A    between atoms: _87  and  _89
REMARK   34  A    between atoms: _89  and  _90
REMARK   35  A    between atoms: _89  and  _92
REMARK   36  A    between atoms: _92  and  _93
REMARK   37  A    between atoms: _98  and  _99
REMARK   38  A    between atoms: _101  and  _103
REMARK   39  A    between atoms: _103  and  _104
REMARK   40  A    between atoms: _103  and  _106
REMARK   41  A    between atoms: _106  and  _107
REMARK   42  A    between atoms: _110  and  _112
REMARK   43  A    between atoms: _112  and  _113
REMARK   44  A    between atoms: _112  and  _115
REMARK   45  A    between atoms: _115  and  _116
REMARK   46  A    between atoms: _119  and  _121
REMARK   47  A    between atoms: _121  and  _122
REMARK   48  A    between atoms: _121  and  _124
REMARK   49  A    between atoms: _124  and  _125
REMARK   50  A    between atoms: _128  and  _130
REMARK   51  A    between atoms: _130  and  _131
REMARK   52  A    between atoms: _130  and  _133
REMARK   53  A    between atoms: _133  and  _134
REMARK   54  A    between atoms: _137  and  _139
REMARK   55  A    between atoms: _139  and  _140
REMARK   56  A    between atoms: _139  and  _142
REMARK   57  A    between atoms: _142  and  _143
REMARK   58  A    between atoms: _143  and  _144
REMARK   59  A    between atoms: _144  and  _145
REMARK   60  A    between atoms: _145  and  _146
REMARK   61  A    between atoms: _150  and  _152
REMARK   62  A    between atoms: _152  and  _153
REMARK   63  A    between atoms: _152  and  _155
REMARK   64  A    between atoms: _155  and  _156
REMARK   65  A    between atoms: _159  and  _161
REMARK   66  A    between atoms: _161  and  _162
REMARK   67  A    between atoms: _161  and  _164
REMARK   68  A    between atoms: _164  and  _165
REMARK   69  A    between atoms: _165  and  _166
REMARK   70  A    between atoms: _166  and  _167
REMARK   71  A    between atoms: _176  and  _178
REMARK   72  A    between atoms: _178  and  _179
REMARK   73  A    between atoms: _178  and  _181
REMARK   74  A    between atoms: _184  and  _186
REMARK   75  A    between atoms: _186  and  _187
REMARK   76  A    between atoms: _186  and  _189
REMARK   77  A    between atoms: _189  and  _190
REMARK   78  A    between atoms: _195  and  _196
REMARK   79  A    between atoms: _198  and  _200
REMARK   80  A    between atoms: _200  and  _201
REMARK   81  A    between atoms: _200  and  _203
REMARK   82  A    between atoms: _203  and  _204
REMARK   83  A    between atoms: _206  and  _208
REMARK   84  A    between atoms: _208  and  _209
REMARK   85  A    between atoms: _208  and  _211
REMARK   86  A    between atoms: _211  and  _212
REMARK   87  A    between atoms: _212  and  _213
REMARK   88  A    between atoms: _216  and  _218
REMARK   89  A    between atoms: _218  and  _219
REMARK   90  A    between atoms: _218  and  _221
REMARK   91  A    between atoms: _221  and  _222
REMARK   92  A    between atoms: _227  and  _228
REMARK   93  A    between atoms: _230  and  _232
REMARK   94  A    between atoms: _232  and  _233
REMARK   95  A    between atoms: _236  and  _238
REMARK   96  A    between atoms: _238  and  _239
REMARK   97  A    between atoms: _238  and  _241
REMARK   98  A    between atoms: _241  and  _242
REMARK   99  A    between atoms: _246  and  _247
REMARK  100  A    between atoms: _252  and  _254
REMARK  101  A    between atoms: _254  and  _255
REMARK  102  A    between atoms: _254  and  _257
REMARK  103  A    between atoms: _257  and  _258
REMARK  104  A    between atoms: _261  and  _263
REMARK  105  A    between atoms: _263  and  _264
REMARK  106  A    between atoms: _263  and  _266
REMARK  107  A    between atoms: _266  and  _267
REMARK  108  A    between atoms: _267  and  _268
REMARK  109  A    between atoms: _273  and  _275
REMARK  110  A    between atoms: _275  and  _276
REMARK  111  A    between atoms: _275  and  _278
REMARK  112  A    between atoms: _278  and  _279
REMARK  113  A    between atoms: _282  and  _284
REMARK  114  A    between atoms: _284  and  _285
REMARK  115  A    between atoms: _284  and  _287
REMARK  116  A    between atoms: _287  and  _288
REMARK  117  A    between atoms: _294  and  _296
REMARK  118  A    between atoms: _296  and  _297
REMARK  119  A    between atoms: _299  and  _301
REMARK  120  A    between atoms: _301  and  _302
REMARK  121  A    between atoms: _301  and  _304
REMARK  122  A    between atoms: _304  and  _305
REMARK  123  A    between atoms: _308  and  _310
REMARK  124  A    between atoms: _310  and  _311
REMARK  125  A    between atoms: _314  and  _316
REMARK  126  A    between atoms: _316  and  _317
REMARK  127  A    between atoms: _316  and  _319
REMARK  128  A    between atoms: _319  and  _320
REMARK  129  A    between atoms: _330  and  _332
REMARK  130  A    between atoms: _332  and  _333
REMARK  131  A    between atoms: _332  and  _335
REMARK  132  A    between atoms: _335  and  _336
REMARK  133  A    between atoms: _338  and  _340
REMARK  134  A    between atoms: _340  and  _341
REMARK  135  A    between atoms: _340  and  _343
REMARK  136  A    between atoms: _343  and  _344
REMARK  137  A    between atoms: _349  and  _350
REMARK  138  A    between atoms: _352  and  _354
REMARK  139  A    between atoms: _354  and  _355
REMARK  140  A    between atoms: _354  and  _357
REMARK  141  A    between atoms: _357  and  _358
REMARK  142  A    between atoms: _363  and  _364
REMARK  143  A    between atoms: _366  and  _368
REMARK  144  A    between atoms: _368  and  _369
REMARK  145  A    between atoms: _368  and  _371
REMARK  146  A    between atoms: _371  and  _372
REMARK  147  A    between atoms: _375  and  _377
REMARK  148  A    between atoms: _377  and  _378
REMARK  149  A    between atoms: _380  and  _382
REMARK  150  A    between atoms: _382  and  _383
REMARK  151  A    between atoms: _382  and  _385
REMARK  152  A    between atoms: _385  and  _386
REMARK  153  A    between atoms: _391  and  _392
REMARK  154  A    between atoms: _394  and  _396
REMARK  155  A    between atoms: _396  and  _397
REMARK  156  A    between atoms: _396  and  _399
REMARK  157  A    between atoms: _399  and  _400
REMARK  158  A    between atoms: _403  and  _405
REMARK  159  A    between atoms: _405  and  _406
REMARK  160  A    between atoms: _405  and  _408
REMARK  161  A    between atoms: _408  and  _409
REMARK  162  A    between atoms: _409  and  _410
REMARK  163  A    between atoms: _410  and  _411
REMARK  164  A    between atoms: _420  and  _422
REMARK  165  A    between atoms: _422  and  _423
REMARK  166  A    between atoms: _422  and  _425
REMARK  167  A    between atoms: _425  and  _426
REMARK  168  A    between atoms: _429  and  _431
REMARK  169  A    between atoms: _431  and  _432
REMARK  170  A    between atoms: _431  and  _434
REMARK  171  A    between atoms: _434  and  _435
REMARK  172  A    between atoms: _438  and  _440
REMARK  173  A    between atoms: _440  and  _441
REMARK  174  A    between atoms: _440  and  _443
REMARK  175  A    between atoms: _443  and  _444
REMARK  176  A    between atoms: _447  and  _449
REMARK  177  A    between atoms: _449  and  _450
REMARK  178  A    between atoms: _449  and  _452
REMARK  179  A    between atoms: _452  and  _453
REMARK  180  A    between atoms: _456  and  _458
REMARK  181  A    between atoms: _458  and  _459
REMARK  182  A    between atoms: _458  and  _461
REMARK  183  A    between atoms: _461  and  _462
REMARK  184  A    between atoms: _462  and  _463
REMARK  185  A    between atoms: _463  and  _464
REMARK  186  A    between atoms: _473  and  _475
REMARK  187  A    between atoms: _475  and  _476
REMARK  188  A    between atoms: _475  and  _478
REMARK  189  A    between atoms: _481  and  _483
REMARK  190  A    between atoms: _483  and  _484
REMARK  191  A    between atoms: _483  and  _486
REMARK  192  A    between atoms: _486  and  _487
REMARK  193  A    between atoms: _492  and  _493
REMARK  194  A    between atoms: _495  and  _497
REMARK  195  A    between atoms: _497  and  _498
REMARK  196  A    between atoms: _497  and  _500
REMARK  197  A    between atoms: _500  and  _501
REMARK  198  A    between atoms: _503  and  _505
REMARK  199  A    between atoms: _505  and  _506
REMARK  200  A    between atoms: _505  and  _508
REMARK  201  A    between atoms: _508  and  _509
REMARK  202  A    between atoms: _514  and  _516
REMARK  203  A    between atoms: _516  and  _517
REMARK  204  A    between atoms: _516  and  _519
REMARK  205  A    between atoms: _519  and  _520
REMARK  206  A    between atoms: _522  and  _524
REMARK  207  A    between atoms: _524  and  _525
REMARK  208  A    between atoms: _524  and  _527
REMARK  209  A    between atoms: _527  and  _528
REMARK  210  A    between atoms: _528  and  _529
REMARK  211  A    between atoms: _532  and  _534
REMARK  212  A    between atoms: _534  and  _535
REMARK  213  A    between atoms: _534  and  _537
REMARK  214  A    between atoms: _537  and  _538
REMARK  215  A    between atoms: _543  and  _544
REMARK  216  A    between atoms: _546  and  _548
REMARK  217  A    between atoms: _548  and  _549
REMARK  218  A    between atoms: _552  and  _554
REMARK  219  A    between atoms: _554  and  _555
REMARK  220  A    between atoms: _554  and  _557
REMARK  221  A    between atoms: _557  and  _558
REMARK  222  A    between atoms: _562  and  _563
REMARK  223  A    between atoms: _568  and  _570
REMARK  224  A    between atoms: _570  and  _571
REMARK  225  A    between atoms: _570  and  _573
REMARK  226  A    between atoms: _573  and  _574
REMARK  227  A    between atoms: _577  and  _579
REMARK  228  A    between atoms: _579  and  _580
REMARK  229  A    between atoms: _579  and  _582
REMARK  230  A    between atoms: _582  and  _583
REMARK  231  A    between atoms: _583  and  _584
REMARK  232  A    between atoms: _589  and  _591
REMARK  233  A    between atoms: _591  and  _592
REMARK  234  A    between atoms: _591  and  _594
REMARK  235  A    between atoms: _594  and  _595
REMARK  236  A    between atoms: _598  and  _600
REMARK  237  A    between atoms: _600  and  _601
REMARK  238  A    between atoms: _600  and  _603
REMARK  239  A    between atoms: _603  and  _604
REMARK  240  A    between atoms: _607  and  _609
REMARK  241  A    between atoms: _609  and  _610
REMARK  242  A    between atoms: _609  and  _612
REMARK  243  A    between atoms: _612  and  _613
REMARK                            x       y       z     vdW  Elec       q    Type
REMARK                         _______ _______ _______ _____ _____    ______ ____
ROOT
ATOM      1  CA  LEU A   1      32.802  33.310  18.078  0.00  0.00    +0.133 C 
ENDROOT
BRANCH   1   2
ATOM      2  N   LEU A   1      34.245  33.210  18.218  0.00  0.00    -0.239 NA
ATOM      3  H   LEU A   1      34.661  32.319  18.556  0.00  0.00    +0.142 HD
ENDBRANCH   1   2
BRANCH   1   4
ATOM      4  C   LEU A   1      32.265  34.293  19.128  0.00  0.00    +0.224 C 
ATOM      5  O   LEU A   1      32.463  34.093  20.335  0.00  0.00    -0.287 OA
ENDBRANCH   1   4
BRANCH   1   6
ATOM      6  CB  LEU A   1      32.182  31.928  18.306  0.00  0.00    +0.025 C 
BRANCH   6   7
ATOM      7  CG  LEU A   1      30.666  31.840  18.239  0.00  0.00    +0.002 C 
ATOM      8  CD2 LEU A   1      30.230  30.408  18.509  0.00  0.00    +0.000 C 
ATOM      9  CD1 LEU A   1      30.178  32.310  16.878  0.00  0.00    +0.000 C 
ENDBRANCH   6   7
ENDBRANCH   1   6
TORSDOF 4
REMARK  Name = ../refined-set-2016/4f5y/4f5y_pocket.pdb
REMARK  243 active torsions:
REMARK  status: ('A' for Active; 'I' for Inactive)
REMARK    1  A    between atoms: _1  and  _3
REMARK    2  A    between atoms: _3  and  _4
REMARK    3  A    between atoms: _6  and  _8
REMARK    4  A    between atoms: _8  and  _9
REMARK    5  A    between atoms: _8  and  _11
REMARK    6  A    between atoms: _11  and  _12
REMARK    7  A    between atoms: _15  and  _17
REMARK    8  A    between atoms: _17  and  _18
REMARK    9  A    between atoms: _21  and  _23
REMARK   10  A    between atoms: _23  and  _24
REMARK   11  A    between atoms: _23  and  _26
REMARK   12  A    between atoms: _26  and  _27
REMARK   13  A    between atoms: _37  and  _39
REMARK   14  A    between atoms: _39  and  _40
REMARK   15  A    between atoms: _39  and  _42
REMARK   16  A    between atoms: _42  and  _43
REMARK   17  A    between atoms: _45  and  _47
REMARK   18  A    between atoms: _47  and  _48
REMARK   19  A    between atoms: _47  and  _50
REMARK   20  A    between atoms: _50  and  _51
REMARK   21  A    between atoms: _56  and  _57
REMARK   22  A    between atoms: _59  and  _61
REMARK   23  A    between atoms: _61  and  _62
REMARK   24  A    between atoms: _61  and  _64
REMARK   25  A    between atoms: _64  and  _65
REMARK   26  A    between atoms: _70  and  _71
REMARK   27  A    between atoms: _73  and  _75
REMARK   28  A    between atoms: _75  and  _76
REMARK   29  A    between atoms: _75  and  _78
REMARK   30  A    between atoms: _78  and  _79
REMARK   31  A    between atoms: _82  and  _84
REMARK   32  A    between atoms: _84  and  _85
REMARK   33  A    between atoms: _87  and  _89
REMARK   34  A    between atoms: _89  and  _90
REMARK   35  A    between atoms: _89  and  _92
REMARK   36  A    between atoms: _92  and  _93
REMARK   37  A    between atoms: _98  and  _99
REMARK   38  A    between atoms: _101  and  _103
REMARK   39  A    between atoms: _103  and  _104
REMARK   40  A    between atoms: _103  and  _106
REMARK   41  A    between atoms: _106  and  _107
REMARK   42  A    between atoms: _110  and  _112
REMARK   43  A    between atoms: _112  and  _113
REMARK   44  A    between atoms: _112  and  _115
REMARK   45  A    between atoms: _115  and  _116
REMARK   46  A    between atoms: _119  and  _121
REMARK   47  A    between atoms: _121  and  _122
REMARK   48  A    between atoms: _121  and  _124
REMARK   49  A    between atoms: _124  and  _125
REMARK   50  A    between atoms: _128  and  _130
REMARK   51  A    between atoms: _130  and  _131
REMARK   52  A    between atoms: _130  and  _133
REMARK   53  A    between atoms: _133  and  _134
REMARK   54  A    between atoms: _137  and  _139
REMARK   55  A    between atoms: _139  and  _140
REMARK   56  A    between atoms: _139  and  _142
REMARK   57  A    between atoms: _142  and  _143
REMARK   58  A    between atoms: _143  and  _144
REMARK   59  A    between atoms: _144  and  _145
REMARK   60  A    between atoms: _145  and  _146
REMARK   61  A    between atoms: _150  and  _152
REMARK   62  A    between atoms: _152  and  _153
REMARK   63  A    between atoms: _152  and  _155
REMARK   64  A    between atoms: _155  and  _156
REMARK   65  A    between atoms: _159  and  _161
REMARK   66  A    between atoms: _161  and  _162
REMARK   67  A    between atoms: _161  and  _164
REMARK   68  A    between atoms: _164  and  _165
REMARK   69  A    between atoms: _165  and  _166
REMARK   70  A    between atoms: _166  and  _167
REMARK   71  A    between atoms: _176  and  _178
REMARK   72  A    between atoms: _178  and  _179
REMARK   73  A    between atoms: _178  and  _181
REMARK   74  A    between atoms: _184  and  _186
REMARK   75  A    between atoms: _186  and  _187
REMARK   76  A    between atoms: _186  and  _189
REMARK   77  A    between atoms: _189  and  _190
REMARK   78  A    between atoms: _195  and  _196
REMARK   79  A    between atoms: _198  and  _200
REMARK   80  A    between atoms: _200  and  _201
REMARK   81  A    between atoms: _200  and  _203
REMARK   82  A    between atoms: _203  and  _204
REMARK   83  A    between atoms: _206  and  _208
REMARK   84  A    between atoms: _208  and  _209
REMARK   85  A    between atoms: _208  and  _211
REMARK   86  A    between atoms: _211  and  _212
REMARK   87  A    between atoms: _212  and  _213
REMARK   88  A    between atoms: _216  and  _218
REMARK   89  A    between atoms: _218  and  _219
REMARK   90  A    between atoms: _218  and  _221
REMARK   91  A    between atoms: _221  and  _222
REMARK   92  A    between atoms: _227  and  _228
REMARK   93  A    between atoms: _230  and  _232
REMARK   94  A    between atoms: _232  and  _233
REMARK   95  A    between atoms: _236  and  _238
REMARK   96  A    between atoms: _238  and  _239
REMARK   97  A    between atoms: _238  and  _241
REMARK   98  A    between atoms: _241  and  _242
REMARK   99  A    between atoms: _246  and  _247
REMARK  100  A    between atoms: _252  and  _254
REMARK  101  A    between atoms: _254  and  _255
REMARK  102  A    between atoms: _254  and  _257
REMARK  103  A    between atoms: _257  and  _258
REMARK  104  A    between atoms: _261  and  _263
REMARK  105  A    between atoms: _263  and  _264
REMARK  106  A    between atoms: _263  and  _266
REMARK  107  A    between atoms: _266  and  _267
REMARK  108  A    between atoms: _267  and  _268
REMARK  109  A    between atoms: _273  and  _275
REMARK  110  A    between atoms: _275  and  _276
REMARK  111  A    between atoms: _275  and  _278
REMARK  112  A    between atoms: _278  and  _279
REMARK  113  A    between atoms: _282  and  _284
REMARK  114  A    between atoms: _284  and  _285
REMARK  115  A    between atoms: _284  and  _287
REMARK  116  A    between atoms: _287  and  _288
REMARK  117  A    between atoms: _294  and  _296
REMARK  118  A    between atoms: _296  and  _297
REMARK  119  A    between atoms: _299  and  _301
REMARK  120  A    between atoms: _301  and  _302
REMARK  121  A    between atoms: _301  and  _304
REMARK  122  A    between atoms: _304  and  _305
REMARK  123  A    between atoms: _308  and  _310
REMARK  124  A    between atoms: _310  and  _311
REMARK  125  A    between atoms: _314  and  _316
REMARK  126  A    between atoms: _316  and  _317
REMARK  127  A    between atoms: _316  and  _319
REMARK  128  A    between atoms: _319  and  _320
REMARK  129  A    between atoms: _330  and  _332
REMARK  130  A    between atoms: _332  and  _333
REMARK  131  A    between atoms: _332  and  _335
REMARK  132  A    between atoms: _335  and  _336
REMARK  133  A    between atoms: _338  and  _340
REMARK  134  A    between atoms: _340  and  _341
REMARK  135  A    between atoms: _340  and  _343
REMARK  136  A    between atoms: _343  and  _344
REMARK  137  A    between atoms: _349  and  _350
REMARK  138  A    between atoms: _352  and  _354
REMARK  139  A    between atoms: _354  and  _355
REMARK  140  A    between atoms: _354  and  _357
REMARK  141  A    between atoms: _357  and  _358
REMARK  142  A    between atoms: _363  and  _364
REMARK  143  A    between atoms: _366  and  _368
REMARK  144  A    between atoms: _368  and  _369
REMARK  145  A    between atoms: _368  and  _371
REMARK  146  A    between atoms: _371  and  _372
REMARK  147  A    between atoms: _375  and  _377
REMARK  148  A    between atoms: _377  and  _378
REMARK  149  A    between atoms: _380  and  _382
REMARK  150  A    between atoms: _382  and  _383
REMARK  151  A    between atoms: _382  and  _385
REMARK  152  A    between atoms: _385  and  _386
REMARK  153  A    between atoms: _391  and  _392
REMARK  154  A    between atoms: _394  and  _396
REMARK  155  A    between atoms: _396  and  _397
REMARK  156  A    between atoms: _396  and  _399
REMARK  157  A    between atoms: _399  and  _400
REMARK  158  A    between atoms: _403  and  _405
REMARK  159  A    between atoms: _405  and  _406
REMARK  160  A    between atoms: _405  and  _408
REMARK  161  A    between atoms: _408  and  _409
REMARK  162  A    between atoms: _409  and  _410
REMARK  163  A    between atoms: _410  and  _411
REMARK  164  A    between atoms: _420  and  _422
REMARK  165  A    between atoms: _422  and  _423
REMARK  166  A    between atoms: _422  and  _425
REMARK  167  A    between atoms: _425  and  _426
REMARK  168  A    between atoms: _429  and  _431
REMARK  169  A    between atoms: _431  and  _432
REMARK  170  A    between atoms: _431  and  _434
REMARK  171  A    between atoms: _434  and  _435
REMARK  172  A    between atoms: _438  and  _440
REMARK  173  A    between atoms: _440  and  _441
REMARK  174  A    between atoms: _440  and  _443
REMARK  175  A    between atoms: _443  and  _444
REMARK  176  A    between atoms: _447  and  _449
REMARK  177  A    between atoms: _449  and  _450
REMARK  178  A    between atoms: _449  and  _452
REMARK  179  A    between atoms: _452  and  _453
REMARK  180  A    between atoms: _456  and  _458
REMARK  181  A    between atoms: _458  and  _459
REMARK  182  A    between atoms: _458  and  _461
REMARK  183  A    between atoms: _461  and  _462
REMARK  184  A    between atoms: _462  and  _463
REMARK  185  A    between atoms: _463  and  _464
REMARK  186  A    between atoms: _473  and  _475
REMARK  187  A    between atoms: _475  and  _476
REMARK  188  A    between atoms: _475  and  _478
REMARK  189  A    between atoms: _481  and  _483
REMARK  190  A    between atoms: _483  and  _484
REMARK  191  A    between atoms: _483  and  _486
REMARK  192  A    between atoms: _486  and  _487
REMARK  193  A    between atoms: _492  and  _493
REMARK  194  A    between atoms: _495  and  _497
REMARK  195  A    between atoms: _497  and  _498
REMARK  196  A    between atoms: _497  and  _500
REMARK  197  A    between atoms: _500  and  _501
REMARK  198  A    between atoms: _503  and  _505
REMARK  199  A    between atoms: _505  and  _506
REMARK  200  A    between atoms: _505  and  _508
REMARK  201  A    between atoms: _508  and  _509
REMARK  202  A    between atoms: _514  and  _516
REMARK  203  A    between atoms: _516  and  _517
REMARK  204  A    between atoms: _516  and  _519
REMARK  205  A    between atoms: _519  and  _520
REMARK  206  A    between atoms: _522  and  _524
REMARK  207  A    between atoms: _524  and  _525
REMARK  208  A    between atoms: _524  and  _527
REMARK  209  A    between atoms: _527  and  _528
REMARK  210  A    between atoms: _528  and  _529
REMARK  211  A    between atoms: _532  and  _534
REMARK  212  A    between atoms: _534  and  _535
REMARK  213  A    between atoms: _534  and  _537
REMARK  214  A    between atoms: _537  and  _538
REMARK  215  A    between atoms: _543  and  _544
REMARK  216  A    between atoms: _546  and  _548
REMARK  217  A    between atoms: _548  and  _549
REMARK  218  A    between atoms: _552  and  _554
REMARK  219  A    between atoms: _554  and  _555
REMARK  220  A    between atoms: _554  and  _557
REMARK  221  A    between atoms: _557  and  _558
REMARK  222  A    between atoms: _562  and  _563
REMARK  223  A    between atoms: _568  and  _570
REMARK  224  A    between atoms: _570  and  _571
REMARK  225  A    between atoms: _570  and  _573
REMARK  226  A    between atoms: _573  and  _574
REMARK  227  A    between atoms: _577  and  _579
REMARK  228  A    between atoms: _579  and  _580
REMARK  229  A    between atoms: _579  and  _582
REMARK  230  A    between atoms: _582  and  _583
REMARK  231  A    between atoms: _583  and  _584
REMARK  232  A    between atoms: _589  and  _591
REMARK  233  A    between atoms: _591  and  _592
REMARK  234  A    between atoms: _591  and  _594
REMARK  235  A    between atoms: _594  and  _595
REMARK  236  A    between atoms: _598  and  _600
REMARK  237  A    between atoms: _600  and  _601
REMARK  238  A    between atoms: _600  and  _603
REMARK  239  A    between atoms: _603  and  _604
REMARK  240  A    between atoms: _607  and  _609
REMARK  241  A    between atoms: _609  and  _610
REMARK  242  A    between atoms: _609  and  _612
REMARK  243  A    between atoms: _612  and  _613
REMARK                            x       y       z     vdW  Elec       q    Type
REMARK                         _______ _______ _______ _____ _____    ______ ____
ROOT
ATOM      1  CA  ILE A   1      27.866  35.246  21.553  0.00  0.00    +0.133 C 
ENDROOT
BRANCH   1   2
ATOM      2  N   ILE A   1      29.197  35.680  21.151  0.00  0.00    -0.239 NA
ATOM      3  H   ILE A   1      29.928  35.797  21.882  0.00  0.00    +0.142 HD
ENDBRANCH   1   2
BRANCH   1   4
ATOM      4  CB  ILE A   1      27.901  33.972  22.441  0.00  0.00    +0.023 C 
ATOM      5  CG2 ILE A   1      26.468  33.501  22.737  0.00  0.00    +0.002 C 
BRANCH   4   6
ATOM      6  CG1 ILE A   1      28.634  32.854  21.711  0.00  0.00    +0.002 C 
ATOM      7  CD1 ILE A   1      28.073  32.661  20.344  0.00  0.00    +0.000 C 
ENDBRANCH   4   6
ENDBRANCH   1   4
BRANCH   1   8
ATOM      8  C   ILE A   1      27.117  36.323  22.312  0.00  0.00    +0.224 C 
ATOM      9  O   ILE A   1      27.442  36.633  23.468  0.00  0.00    -0.287 OA
ENDBRANCH   1   8
TORSDOF 4
REMARK  Name = ../refined-set-2016/4f5y/4f5y_pocket.pdb
REMARK  243 active torsions:
REMARK  status: ('A' for Active; 'I' for Inactive)
REMARK    1  A    between atoms: _1  and  _3
REMARK    2  A    between atoms: _3  and  _4
REMARK    3  A    between atoms: _6  and  _8
REMARK    4  A    between atoms: _8  and  _9
REMARK    5  A    between atoms: _8  and  _11
REMARK    6  A    between atoms: _11  and  _12
REMARK    7  A    between atoms: _15  and  _17
REMARK    8  A    between atoms: _17  and  _18
REMARK    9  A    between atoms: _21  and  _23
REMARK   10  A    between atoms: _23  and  _24
REMARK   11  A    between atoms: _23  and  _26
REMARK   12  A    between atoms: _26  and  _27
REMARK   13  A    between atoms: _37  and  _39
REMARK   14  A    between atoms: _39  and  _40
REMARK   15  A    between atoms: _39  and  _42
REMARK   16  A    between atoms: _42  and  _43
REMARK   17  A    between atoms: _45  and  _47
REMARK   18  A    between atoms: _47  and  _48
REMARK   19  A    between atoms: _47  and  _50
REMARK   20  A    between atoms: _50  and  _51
REMARK   21  A    between atoms: _56  and  _57
REMARK   22  A    between atoms: _59  and  _61
REMARK   23  A    between atoms: _61  and  _62
REMARK   24  A    between atoms: _61  and  _64
REMARK   25  A    between atoms: _64  and  _65
REMARK   26  A    between atoms: _70  and  _71
REMARK   27  A    between atoms: _73  and  _75
REMARK   28  A    between atoms: _75  and  _76
REMARK   29  A    between atoms: _75  and  _78
REMARK   30  A    between atoms: _78  and  _79
REMARK   31  A    between atoms: _82  and  _84
REMARK   32  A    between atoms: _84  and  _85
REMARK   33  A    between atoms: _87  and  _89
REMARK   34  A    between atoms: _89  and  _90
REMARK   35  A    between atoms: _89  and  _92
REMARK   36  A    between atoms: _92  and  _93
REMARK   37  A    between atoms: _98  and  _99
REMARK   38  A    between atoms: _101  and  _103
REMARK   39  A    between atoms: _103  and  _104
REMARK   40  A    between atoms: _103  and  _106
REMARK   41  A    between atoms: _106  and  _107
REMARK   42  A    between atoms: _110  and  _112
REMARK   43  A    between atoms: _112  and  _113
REMARK   44  A    between atoms: _112  and  _115
REMARK   45  A    between atoms: _115  and  _116
REMARK   46  A    between atoms: _119  and  _121
REMARK   47  A    between atoms: _121  and  _122
REMARK   48  A    between atoms: _121  and  _124
REMARK   49  A    between atoms: _124  and  _125
REMARK   50  A    between atoms: _128  and  _130
REMARK   51  A    between atoms: _130  and  _131
REMARK   52  A    between atoms: _130  and  _133
REMARK   53  A    between atoms: _133  and  _134
REMARK   54  A    between atoms: _137  and  _139
REMARK   55  A    between atoms: _139  and  _140
REMARK   56  A    between atoms: _139  and  _142
REMARK   57  A    between atoms: _142  and  _143
REMARK   58  A    between atoms: _143  and  _144
REMARK   59  A    between atoms: _144  and  _145
REMARK   60  A    between atoms: _145  and  _146
REMARK   61  A    between atoms: _150  and  _152
REMARK   62  A    between atoms: _152  and  _153
REMARK   63  A    between atoms: _152  and  _155
REMARK   64  A    between atoms: _155  and  _156
REMARK   65  A    between atoms: _159  and  _161
REMARK   66  A    between atoms: _161  and  _162
REMARK   67  A    between atoms: _161  and  _164
REMARK   68  A    between atoms: _164  and  _165
REMARK   69  A    between atoms: _165  and  _166
REMARK   70  A    between atoms: _166  and  _167
REMARK   71  A    between atoms: _176  and  _178
REMARK   72  A    between atoms: _178  and  _179
REMARK   73  A    between atoms: _178  and  _181
REMARK   74  A    between atoms: _184  and  _186
REMARK   75  A    between atoms: _186  and  _187
REMARK   76  A    between atoms: _186  and  _189
REMARK   77  A    between atoms: _189  and  _190
REMARK   78  A    between atoms: _195  and  _196
REMARK   79  A    between atoms: _198  and  _200
REMARK   80  A    between atoms: _200  and  _201
REMARK   81  A    between atoms: _200  and  _203
REMARK   82  A    between atoms: _203  and  _204
REMARK   83  A    between atoms: _206  and  _208
REMARK   84  A    between atoms: _208  and  _209
REMARK   85  A    between atoms: _208  and  _211
REMARK   86  A    between atoms: _211  and  _212
REMARK   87  A    between atoms: _212  and  _213
REMARK   88  A    between atoms: _216  and  _218
REMARK   89  A    between atoms: _218  and  _219
REMARK   90  A    between atoms: _218  and  _221
REMARK   91  A    between atoms: _221  and  _222
REMARK   92  A    between atoms: _227  and  _228
REMARK   93  A    between atoms: _230  and  _232
REMARK   94  A    between atoms: _232  and  _233
REMARK   95  A    between atoms: _236  and  _238
REMARK   96  A    between atoms: _238  and  _239
REMARK   97  A    between atoms: _238  and  _241
REMARK   98  A    between atoms: _241  and  _242
REMARK   99  A    between atoms: _246  and  _247
REMARK  100  A    between atoms: _252  and  _254
REMARK  101  A    between atoms: _254  and  _255
REMARK  102  A    between atoms: _254  and  _257
REMARK  103  A    between atoms: _257  and  _258
REMARK  104  A    between atoms: _261  and  _263
REMARK  105  A    between atoms: _263  and  _264
REMARK  106  A    between atoms: _263  and  _266
REMARK  107  A    between atoms: _266  and  _267
REMARK  108  A    between atoms: _267  and  _268
REMARK  109  A    between atoms: _273  and  _275
REMARK  110  A    between atoms: _275  and  _276
REMARK  111  A    between atoms: _275  and  _278
REMARK  112  A    between atoms: _278  and  _279
REMARK  113  A    between atoms: _282  and  _284
REMARK  114  A    between atoms: _284  and  _285
REMARK  115  A    between atoms: _284  and  _287
REMARK  116  A    between atoms: _287  and  _288
REMARK  117  A    between atoms: _294  and  _296
REMARK  118  A    between atoms: _296  and  _297
REMARK  119  A    between atoms: _299  and  _301
REMARK  120  A    between atoms: _301  and  _302
REMARK  121  A    between atoms: _301  and  _304
REMARK  122  A    between atoms: _304  and  _305
REMARK  123  A    between atoms: _308  and  _310
REMARK  124  A    between atoms: _310  and  _311
REMARK  125  A    between atoms: _314  and  _316
REMARK  126  A    between atoms: _316  and  _317
REMARK  127  A    between atoms: _316  and  _319
REMARK  128  A    between atoms: _319  and  _320
REMARK  129  A    between atoms: _330  and  _332
REMARK  130  A    between atoms: _332  and  _333
REMARK  131  A    between atoms: _332  and  _335
REMARK  132  A    between atoms: _335  and  _336
REMARK  133  A    between atoms: _338  and  _340
REMARK  134  A    between atoms: _340  and  _341
REMARK  135  A    between atoms: _340  and  _343
REMARK  136  A    between atoms: _343  and  _344
REMARK  137  A    between atoms: _349  and  _350
REMARK  138  A    between atoms: _352  and  _354
REMARK  139  A    between atoms: _354  and  _355
REMARK  140  A    between atoms: _354  and  _357
REMARK  141  A    between atoms: _357  and  _358
REMARK  142  A    between atoms: _363  and  _364
REMARK  143  A    between atoms: _366  and  _368
REMARK  144  A    between atoms: _368  and  _369
REMARK  145  A    between atoms: _368  and  _371
REMARK  146  A    between atoms: _371  and  _372
REMARK  147  A    between atoms: _375  and  _377
REMARK  148  A    between atoms: _377  and  _378
REMARK  149  A    between atoms: _380  and  _382
REMARK  150  A    between atoms: _382  and  _383
REMARK  151  A    between atoms: _382  and  _385
REMARK  152  A    between atoms: _385  and  _386
REMARK  153  A    between atoms: _391  and  _392
REMARK  154  A    between atoms: _394  and  _396
REMARK  155  A    between atoms: _396  and  _397
REMARK  156  A    between atoms: _396  and  _399
REMARK  157  A    between atoms: _399  and  _400
REMARK  158  A    between atoms: _403  and  _405
REMARK  159  A    between atoms: _405  and  _406
REMARK  160  A    between atoms: _405  and  _408
REMARK  161  A    between atoms: _408  and  _409
REMARK  162  A    between atoms: _409  and  _410
REMARK  163  A    between atoms: _410  and  _411
REMARK  164  A    between atoms: _420  and  _422
REMARK  165  A    between atoms: _422  and  _423
REMARK  166  A    between atoms: _422  and  _425
REMARK  167  A    between atoms: _425  and  _426
REMARK  168  A    between atoms: _429  and  _431
REMARK  169  A    between atoms: _431  and  _432
REMARK  170  A    between atoms: _431  and  _434
REMARK  171  A    between atoms: _434  and  _435
REMARK  172  A    between atoms: _438  and  _440
REMARK  173  A    between atoms: _440  and  _441
REMARK  174  A    between atoms: _440  and  _443
REMARK  175  A    between atoms: _443  and  _444
REMARK  176  A    between atoms: _447  and  _449
REMARK  177  A    between atoms: _449  and  _450
REMARK  178  A    between atoms: _449  and  _452
REMARK  179  A    between atoms: _452  and  _453
REMARK  180  A    between atoms: _456  and  _458
REMARK  181  A    between atoms: _458  and  _459
REMARK  182  A    between atoms: _458  and  _461
REMARK  183  A    between atoms: _461  and  _462
REMARK  184  A    between atoms: _462  and  _463
REMARK  185  A    between atoms: _463  and  _464
REMARK  186  A    between atoms: _473  and  _475
REMARK  187  A    between atoms: _475  and  _476
REMARK  188  A    between atoms: _475  and  _478
REMARK  189  A    between atoms: _481  and  _483
REMARK  190  A    between atoms: _483  and  _484
REMARK  191  A    between atoms: _483  and  _486
REMARK  192  A    between atoms: _486  and  _487
REMARK  193  A    between atoms: _492  and  _493
REMARK  194  A    between atoms: _495  and  _497
REMARK  195  A    between atoms: _497  and  _498
REMARK  196  A    between atoms: _497  and  _500
REMARK  197  A    between atoms: _500  and  _501
REMARK  198  A    between atoms: _503  and  _505
REMARK  199  A    between atoms: _505  and  _506
REMARK  200  A    between atoms: _505  and  _508
REMARK  201  A    between atoms: _508  and  _509
REMARK  202  A    between atoms: _514  and  _516
REMARK  203  A    between atoms: _516  and  _517
REMARK  204  A    between atoms: _516  and  _519
REMARK  205  A    between atoms: _519  and  _520
REMARK  206  A    between atoms: _522  and  _524
REMARK  207  A    between atoms: _524  and  _525
REMARK  208  A    between atoms: _524  and  _527
REMARK  209  A    between atoms: _527  and  _528
REMARK  210  A    between atoms: _528  and  _529
REMARK  211  A    between atoms: _532  and  _534
REMARK  212  A    between atoms: _534  and  _535
REMARK  213  A    between atoms: _534  and  _537
REMARK  214  A    between atoms: _537  and  _538
REMARK  215  A    between atoms: _543  and  _544
REMARK  216  A    between atoms: _546  and  _548
REMARK  217  A    between atoms: _548  and  _549
REMARK  218  A    between atoms: _552  and  _554
REMARK  219  A    between atoms: _554  and  _555
REMARK  220  A    between atoms: _554  and  _557
REMARK  221  A    between atoms: _557  and  _558
REMARK  222  A    between atoms: _562  and  _563
REMARK  223  A    between atoms: _568  and  _570
REMARK  224  A    between atoms: _570  and  _571
REMARK  225  A    between atoms: _570  and  _573
REMARK  226  A    between atoms: _573  and  _574
REMARK  227  A    between atoms: _577  and  _579
REMARK  228  A    between atoms: _579  and  _580
REMARK  229  A    between atoms: _579  and  _582
REMARK  230  A    between atoms: _582  and  _583
REMARK  231  A    between atoms: _583  and  _584
REMARK  232  A    between atoms: _589  and  _591
REMARK  233  A    between atoms: _591  and  _592
REMARK  234  A    between atoms: _591  and  _594
REMARK  235  A    between atoms: _594  and  _595
REMARK  236  A    between atoms: _598  and  _600
REMARK  237  A    between atoms: _600  and  _601
REMARK  238  A    between atoms: _600  and  _603
REMARK  239  A    between atoms: _603  and  _604
REMARK  240  A    between atoms: _607  and  _609
REMARK  241  A    between atoms: _609  and  _610
REMARK  242  A    between atoms: _609  and  _612
REMARK  243  A    between atoms: _612  and  _613
REMARK                            x       y       z     vdW  Elec       q    Type
REMARK                         _______ _______ _______ _____ _____    ______ ____
ROOT
ATOM      1  CA  TYR A   3      26.239  25.146  10.825  0.00  0.00    +0.153 C 
ENDROOT
BRANCH   1   2
ATOM      2  C   TYR A   3      26.262  26.454  10.060  0.00  0.00    +0.241 C 
ATOM      3  N   SER A   4      25.142  27.158  10.089  0.00  0.00    -0.295 N 
ATOM      4  H   SER A   4      24.285  26.740  10.505  0.00  0.00    +0.150 HD
ATOM      5  O   TYR A   3      27.265  26.806   9.438  0.00  0.00    -0.273 OA
BRANCH   3   6
ATOM      6  CA  SER A   4      25.090  28.496   9.553  0.00  0.00    +0.178 C 
BRANCH   6   7
ATOM      7  C   SER A   4      25.735  29.388  10.610  0.00  0.00    +0.243 C 
ATOM      8  O   SER A   4      25.360  29.324  11.788  0.00  0.00    -0.273 OA
ATOM      9  N   ASN A   5      26.737  30.165  10.200  0.00  0.00    -0.297 N 
ATOM     10  H   ASN A   5      27.087  30.060   9.226  0.00  0.00    +0.150 HD
BRANCH   9  11
ATOM     11  CA  ASN A   5      27.360  31.158  11.070  0.00  0.00    +0.158 C 
BRANCH  11  12
ATOM     12  C   ASN A   5      27.536  32.430  10.264  0.00  0.00    +0.241 C 
ATOM     13  N   SER A   6      27.130  33.560  10.826  0.00  0.00    -0.296 N 
ATOM     14  H   SER A   6      26.754  33.559  11.796  0.00  0.00    +0.150 HD
ATOM     15  O   ASN A   5      28.029  32.394   9.127  0.00  0.00    -0.273 OA
BRANCH  13  16
ATOM     16  CA  SER A   6      27.216  34.806  10.070  0.00  0.00    +0.166 C 
BRANCH  16  17
ATOM     17  CB  SER A   6      28.346  35.735  10.503  0.00  0.00    +0.229 C 
ATOM     18  OG  SER A   6      28.630  35.891  11.696  0.00  0.00    -0.286 OA
ENDBRANCH  16  17
BRANCH  16  19
ATOM     19  C   SER A   6      25.879  35.544  10.099  0.00  0.00    +0.165 C 
BRANCH  19  20
ATOM     20  O   SER A   6      24.860  34.728   9.549  0.00  0.00    -0.380 OA
ATOM     21  H   SER A   6      24.784  33.895  10.079  0.00  0.00    +0.211 HD
ENDBRANCH  19  20
ENDBRANCH  16  19
ENDBRANCH  13  16
ENDBRANCH  11  12
BRANCH  11  22
ATOM     22  CB  ASN A   5      28.708  30.679  11.608  0.00  0.00    +0.114 C 
BRANCH  22  23
ATOM     23  CG  ASN A   5      28.589  29.424  12.462  0.00  0.00    +0.222 C 
ATOM     24  ND2 ASN A   5      28.288  29.601  13.748  0.00  0.00    -0.329 N 
ATOM     25 HD21 ASN A   5      28.202  28.779  14.380  0.00  0.00    +0.145 HD
ATOM     26 HD22 ASN A   5      28.139  30.561  14.120  0.00  0.00    +0.145 HD
ATOM     27  OD1 ASN A   5      28.776  28.307  11.970  0.00  0.00    -0.275 OA
ENDBRANCH  22  23
ENDBRANCH  11  22
ENDBRANCH   9  11
ENDBRANCH   6   7
BRANCH   6  28
ATOM     28  CB  SER A   4      23.637  28.920   9.288  0.00  0.00    +0.166 C 
BRANCH  28  29
ATOM     29  OG  SER A   4      23.574  30.281   8.873  0.00  0.00    -0.380 OA
ATOM     30  H   SER A   4      22.630  30.531   8.708  0.00  0.00    +0.211 HD
ENDBRANCH  28  29
ENDBRANCH   6  28
ENDBRANCH   3   6
ENDBRANCH   1   2
BRANCH   1  32
ATOM     31  C   VAL A   2      25.581  23.301   9.399  0.00  0.00    +0.241 C 
ATOM     32  N   TYR A   3      26.563  24.029   9.942  0.00  0.00    -0.297 N 
ATOM     33  H   TYR A   3      27.556  23.800   9.736  0.00  0.00    +0.150 HD
ATOM     34  O   VAL A   2      24.404  23.430   9.737  0.00  0.00    -0.273 OA
BRANCH  31  35
ATOM     35  CA  VAL A   2      25.975  22.266   8.347  0.00  0.00    +0.148 C 
BRANCH  35  37
ATOM     36  C   ARG A   1      26.158  19.861   8.581  0.00  0.00    +0.238 C 
ATOM     37  N   VAL A   2      25.632  21.010   8.987  0.00  0.00    -0.297 N 
ATOM     38  H   VAL A   2      24.960  21.010   9.781  0.00  0.00    +0.150 HD
ATOM     39  O   ARG A   1      26.805  19.748   7.541  0.00  0.00    -0.274 OA
BRANCH  36  40
ATOM     40  CA  ARG A   1      25.950  18.672   9.502  0.00  0.00    +0.145 C 
BRANCH  40  41
ATOM     41  N   ARG A   1      26.770  18.847  10.685  0.00  0.00    -0.238 NA
ATOM     42  H   ARG A   1      26.309  19.085  11.587  0.00  0.00    +0.142 HD
ENDBRANCH  40  41
BRANCH  40  43
ATOM     43  CB  ARG A   1      24.469  18.646   9.875  0.00  0.00    +0.030 C 
BRANCH  43  44
ATOM     44  CG  ARG A   1      24.065  19.729  10.860  0.00  0.00    +0.045 C 
BRANCH  44  45
ATOM     45  CD  ARG A   1      22.569  19.712  11.132  0.00  0.00    +0.174 C 
BRANCH  45  46
ATOM     46  NE  ARG A   1      22.215  20.557  12.269  0.00  0.00    -0.265 N 
ATOM     47  HE  ARG A   1      22.076  20.098  13.192  0.00  0.00    +0.259 HD
ATOM     48  CZ  ARG A   1      22.059  21.875  12.201  0.00  0.00    +0.342 C 
ATOM     49  NH2 ARG A   1      21.737  22.563  13.287  0.00  0.00    -0.292 N 
ATOM     50 HH21 ARG A   1      21.606  22.072  14.194  0.00  0.00    +0.255 HD
ATOM     51 HH22 ARG A   1      21.615  23.594  13.232  0.00  0.00    +0.255 HD
ATOM     52  NH1 ARG A   1      22.228  22.507  11.048  0.00  0.00    -0.292 N 
ATOM     53 HH11 ARG A   1      22.105  23.539  10.998  0.00  0.00    +0.255 HD
ATOM     54 HH12 ARG A   1      22.483  21.971  10.194  0.00  0.00    +0.255 HD
ENDBRANCH  45  46
ENDBRANCH  44  45
ENDBRANCH  43  44
ENDBRANCH  40  43
ENDBRANCH  36  40
ENDBRANCH  35  37
BRANCH  35  55
ATOM     55  CB  VAL A   2      25.340  22.634   6.997  0.00  0.00    +0.027 C 
ATOM     56  CG2 VAL A   2      25.195  24.147   6.870  0.00  0.00    +0.002 C 
ATOM     57  CG1 VAL A   2      26.179  22.062   5.847  0.00  0.00    +0.002 C 
ENDBRANCH  35  55
ENDBRANCH  31  35
ENDBRANCH   1  32
BRANCH   1  58
ATOM     58  CB  TYR A   3      27.203  25.240  12.008  0.00  0.00    +0.055 C 
BRANCH  58  59
ATOM     59  CG  TYR A   3      27.228  24.003  12.861  0.00  0.00    -0.020 A 
ATOM     60  CD2 TYR A   3      26.099  23.591  13.555  0.00  0.00    -0.001 A 
ATOM     61  CE2 TYR A   3      26.118  22.446  14.328  0.00  0.00    +0.036 A 
ATOM     62  CZ  TYR A   3      27.277  21.698  14.411  0.00  0.00    +0.134 A 
ATOM     63  CE1 TYR A   3      28.408  22.089  13.732  0.00  0.00    +0.036 A 
ATOM     64  CD1 TYR A   3      28.377  23.233  12.957  0.00  0.00    -0.001 A 
BRANCH  62  65
ATOM     65  OH  TYR A   3      27.305  20.557  15.177  0.00  0.00    -0.506 OA
ATOM     66  HH  TYR A   3      28.205  20.148  15.125  0.00  0.00    +0.292 HD
ENDBRANCH  62  65
ENDBRANCH  58  59
ENDBRANCH   1  58
TORSDOF 26
REMARK  Name = ../refined-set-2016/4f5y/4f5y_pocket.pdb
REMARK  243 active torsions:
REMARK  status: ('A' for Active; 'I' for Inactive)
REMARK    1  A    between atoms: _1  and  _3
REMARK    2  A    between atoms: _3  and  _4
REMARK    3  A    between atoms: _6  and  _8
REMARK    4  A    between atoms: _8  and  _9
REMARK    5  A    between atoms: _8  and  _11
REMARK    6  A    between atoms: _11  and  _12
REMARK    7  A    between atoms: _15  and  _17
REMARK    8  A    between atoms: _17  and  _18
REMARK    9  A    between atoms: _21  and  _23
REMARK   10  A    between atoms: _23  and  _24
REMARK   11  A    between atoms: _23  and  _26
REMARK   12  A    between atoms: _26  and  _27
REMARK   13  A    between atoms: _37  and  _39
REMARK   14  A    between atoms: _39  and  _40
REMARK   15  A    between atoms: _39  and  _42
REMARK   16  A    between atoms: _42  and  _43
REMARK   17  A    between atoms: _45  and  _47
REMARK   18  A    between atoms: _47  and  _48
REMARK   19  A    between atoms: _47  and  _50
REMARK   20  A    between atoms: _50  and  _51
REMARK   21  A    between atoms: _56  and  _57
REMARK   22  A    between atoms: _59  and  _61
REMARK   23  A    between atoms: _61  and  _62
REMARK   24  A    between atoms: _61  and  _64
REMARK   25  A    between atoms: _64  and  _65
REMARK   26  A    between atoms: _70  and  _71
REMARK   27  A    between atoms: _73  and  _75
REMARK   28  A    between atoms: _75  and  _76
REMARK   29  A    between atoms: _75  and  _78
REMARK   30  A    between atoms: _78  and  _79
REMARK   31  A    between atoms: _82  and  _84
REMARK   32  A    between atoms: _84  and  _85
REMARK   33  A    between atoms: _87  and  _89
REMARK   34  A    between atoms: _89  and  _90
REMARK   35  A    between atoms: _89  and  _92
REMARK   36  A    between atoms: _92  and  _93
REMARK   37  A    between atoms: _98  and  _99
REMARK   38  A    between atoms: _101  and  _103
REMARK   39  A    between atoms: _103  and  _104
REMARK   40  A    between atoms: _103  and  _106
REMARK   41  A    between atoms: _106  and  _107
REMARK   42  A    between atoms: _110  and  _112
REMARK   43  A    between atoms: _112  and  _113
REMARK   44  A    between atoms: _112  and  _115
REMARK   45  A    between atoms: _115  and  _116
REMARK   46  A    between atoms: _119  and  _121
REMARK   47  A    between atoms: _121  and  _122
REMARK   48  A    between atoms: _121  and  _124
REMARK   49  A    between atoms: _124  and  _125
REMARK   50  A    between atoms: _128  and  _130
REMARK   51  A    between atoms: _130  and  _131
REMARK   52  A    between atoms: _130  and  _133
REMARK   53  A    between atoms: _133  and  _134
REMARK   54  A    between atoms: _137  and  _139
REMARK   55  A    between atoms: _139  and  _140
REMARK   56  A    between atoms: _139  and  _142
REMARK   57  A    between atoms: _142  and  _143
REMARK   58  A    between atoms: _143  and  _144
REMARK   59  A    between atoms: _144  and  _145
REMARK   60  A    between atoms: _145  and  _146
REMARK   61  A    between atoms: _150  and  _152
REMARK   62  A    between atoms: _152  and  _153
REMARK   63  A    between atoms: _152  and  _155
REMARK   64  A    between atoms: _155  and  _156
REMARK   65  A    between atoms: _159  and  _161
REMARK   66  A    between atoms: _161  and  _162
REMARK   67  A    between atoms: _161  and  _164
REMARK   68  A    between atoms: _164  and  _165
REMARK   69  A    between atoms: _165  and  _166
REMARK   70  A    between atoms: _166  and  _167
REMARK   71  A    between atoms: _176  and  _178
REMARK   72  A    between atoms: _178  and  _179
REMARK   73  A    between atoms: _178  and  _181
REMARK   74  A    between atoms: _184  and  _186
REMARK   75  A    between atoms: _186  and  _187
REMARK   76  A    between atoms: _186  and  _189
REMARK   77  A    between atoms: _189  and  _190
REMARK   78  A    between atoms: _195  and  _196
REMARK   79  A    between atoms: _198  and  _200
REMARK   80  A    between atoms: _200  and  _201
REMARK   81  A    between atoms: _200  and  _203
REMARK   82  A    between atoms: _203  and  _204
REMARK   83  A    between atoms: _206  and  _208
REMARK   84  A    between atoms: _208  and  _209
REMARK   85  A    between atoms: _208  and  _211
REMARK   86  A    between atoms: _211  and  _212
REMARK   87  A    between atoms: _212  and  _213
REMARK   88  A    between atoms: _216  and  _218
REMARK   89  A    between atoms: _218  and  _219
REMARK   90  A    between atoms: _218  and  _221
REMARK   91  A    between atoms: _221  and  _222
REMARK   92  A    between atoms: _227  and  _228
REMARK   93  A    between atoms: _230  and  _232
REMARK   94  A    between atoms: _232  and  _233
REMARK   95  A    between atoms: _236  and  _238
REMARK   96  A    between atoms: _238  and  _239
REMARK   97  A    between atoms: _238  and  _241
REMARK   98  A    between atoms: _241  and  _242
REMARK   99  A    between atoms: _246  and  _247
REMARK  100  A    between atoms: _252  and  _254
REMARK  101  A    between atoms: _254  and  _255
REMARK  102  A    between atoms: _254  and  _257
REMARK  103  A    between atoms: _257  and  _258
REMARK  104  A    between atoms: _261  and  _263
REMARK  105  A    between atoms: _263  and  _264
REMARK  106  A    between atoms: _263  and  _266
REMARK  107  A    between atoms: _266  and  _267
REMARK  108  A    between atoms: _267  and  _268
REMARK  109  A    between atoms: _273  and  _275
REMARK  110  A    between atoms: _275  and  _276
REMARK  111  A    between atoms: _275  and  _278
REMARK  112  A    between atoms: _278  and  _279
REMARK  113  A    between atoms: _282  and  _284
REMARK  114  A    between atoms: _284  and  _285
REMARK  115  A    between atoms: _284  and  _287
REMARK  116  A    between atoms: _287  and  _288
REMARK  117  A    between atoms: _294  and  _296
REMARK  118  A    between atoms: _296  and  _297
REMARK  119  A    between atoms: _299  and  _301
REMARK  120  A    between atoms: _301  and  _302
REMARK  121  A    between atoms: _301  and  _304
REMARK  122  A    between atoms: _304  and  _305
REMARK  123  A    between atoms: _308  and  _310
REMARK  124  A    between atoms: _310  and  _311
REMARK  125  A    between atoms: _314  and  _316
REMARK  126  A    between atoms: _316  and  _317
REMARK  127  A    between atoms: _316  and  _319
REMARK  128  A    between atoms: _319  and  _320
REMARK  129  A    between atoms: _330  and  _332
REMARK  130  A    between atoms: _332  and  _333
REMARK  131  A    between atoms: _332  and  _335
REMARK  132  A    between atoms: _335  and  _336
REMARK  133  A    between atoms: _338  and  _340
REMARK  134  A    between atoms: _340  and  _341
REMARK  135  A    between atoms: _340  and  _343
REMARK  136  A    between atoms: _343  and  _344
REMARK  137  A    between atoms: _349  and  _350
REMARK  138  A    between atoms: _352  and  _354
REMARK  139  A    between atoms: _354  and  _355
REMARK  140  A    between atoms: _354  and  _357
REMARK  141  A    between atoms: _357  and  _358
REMARK  142  A    between atoms: _363  and  _364
REMARK  143  A    between atoms: _366  and  _368
REMARK  144  A    between atoms: _368  and  _369
REMARK  145  A    between atoms: _368  and  _371
REMARK  146  A    between atoms: _371  and  _372
REMARK  147  A    between atoms: _375  and  _377
REMARK  148  A    between atoms: _377  and  _378
REMARK  149  A    between atoms: _380  and  _382
REMARK  150  A    between atoms: _382  and  _383
REMARK  151  A    between atoms: _382  and  _385
REMARK  152  A    between atoms: _385  and  _386
REMARK  153  A    between atoms: _391  and  _392
REMARK  154  A    between atoms: _394  and  _396
REMARK  155  A    between atoms: _396  and  _397
REMARK  156  A    between atoms: _396  and  _399
REMARK  157  A    between atoms: _399  and  _400
REMARK  158  A    between atoms: _403  and  _405
REMARK  159  A    between atoms: _405  and  _406
REMARK  160  A    between atoms: _405  and  _408
REMARK  161  A    between atoms: _408  and  _409
REMARK  162  A    between atoms: _409  and  _410
REMARK  163  A    between atoms: _410  and  _411
REMARK  164  A    between atoms: _420  and  _422
REMARK  165  A    between atoms: _422  and  _423
REMARK  166  A    between atoms: _422  and  _425
REMARK  167  A    between atoms: _425  and  _426
REMARK  168  A    between atoms: _429  and  _431
REMARK  169  A    between atoms: _431  and  _432
REMARK  170  A    between atoms: _431  and  _434
REMARK  171  A    between atoms: _434  and  _435
REMARK  172  A    between atoms: _438  and  _440
REMARK  173  A    between atoms: _440  and  _441
REMARK  174  A    between atoms: _440  and  _443
REMARK  175  A    between atoms: _443  and  _444
REMARK  176  A    between atoms: _447  and  _449
REMARK  177  A    between atoms: _449  and  _450
REMARK  178  A    between atoms: _449  and  _452
REMARK  179  A    between atoms: _452  and  _453
REMARK  180  A    between atoms: _456  and  _458
REMARK  181  A    between atoms: _458  and  _459
REMARK  182  A    between atoms: _458  and  _461
REMARK  183  A    between atoms: _461  and  _462
REMARK  184  A    between atoms: _462  and  _463
REMARK  185  A    between atoms: _463  and  _464
REMARK  186  A    between atoms: _473  and  _475
REMARK  187  A    between atoms: _475  and  _476
REMARK  188  A    between atoms: _475  and  _478
REMARK  189  A    between atoms: _481  and  _483
REMARK  190  A    between atoms: _483  and  _484
REMARK  191  A    between atoms: _483  and  _486
REMARK  192  A    between atoms: _486  and  _487
REMARK  193  A    between atoms: _492  and  _493
REMARK  194  A    between atoms: _495  and  _497
REMARK  195  A    between atoms: _497  and  _498
REMARK  196  A    between atoms: _497  and  _500
REMARK  197  A    between atoms: _500  and  _501
REMARK  198  A    between atoms: _503  and  _505
REMARK  199  A    between atoms: _505  and  _506
REMARK  200  A    between atoms: _505  and  _508
REMARK  201  A    between atoms: _508  and  _509
REMARK  202  A    between atoms: _514  and  _516
REMARK  203  A    between atoms: _516  and  _517
REMARK  204  A    between atoms: _516  and  _519
REMARK  205  A    between atoms: _519  and  _520
REMARK  206  A    between atoms: _522  and  _524
REMARK  207  A    between atoms: _524  and  _525
REMARK  208  A    between atoms: _524  and  _527
REMARK  209  A    between atoms: _527  and  _528
REMARK  210  A    between atoms: _528  and  _529
REMARK  211  A    between atoms: _532  and  _534
REMARK  212  A    between atoms: _534  and  _535
REMARK  213  A    between atoms: _534  and  _537
REMARK  214  A    between atoms: _537  and  _538
REMARK  215  A    between atoms: _543  and  _544
REMARK  216  A    between atoms: _546  and  _548
REMARK  217  A    between atoms: _548  and  _549
REMARK  218  A    between atoms: _552  and  _554
REMARK  219  A    between atoms: _554  and  _555
REMARK  220  A    between atoms: _554  and  _557
REMARK  221  A    between atoms: _557  and  _558
REMARK  222  A    between atoms: _562  and  _563
REMARK  223  A    between atoms: _568  and  _570
REMARK  224  A    between atoms: _570  and  _571
REMARK  225  A    between atoms: _570  and  _573
REMARK  226  A    between atoms: _573  and  _574
REMARK  227  A    between atoms: _577  and  _579
REMARK  228  A    between atoms: _579  and  _580
REMARK  229  A    between atoms: _579  and  _582
REMARK  230  A    between atoms: _582  and  _583
REMARK  231  A    between atoms: _583  and  _584
REMARK  232  A    between atoms: _589  and  _591
REMARK  233  A    between atoms: _591  and  _592
REMARK  234  A    between atoms: _591  and  _594
REMARK  235  A    between atoms: _594  and  _595
REMARK  236  A    between atoms: _598  and  _600
REMARK  237  A    between atoms: _600  and  _601
REMARK  238  A    between atoms: _600  and  _603
REMARK  239  A    between atoms: _603  and  _604
REMARK  240  A    between atoms: _607  and  _609
REMARK  241  A    between atoms: _609  and  _610
REMARK  242  A    between atoms: _609  and  _612
REMARK  243  A    between atoms: _612  and  _613
REMARK                            x       y       z     vdW  Elec       q    Type
REMARK                         _______ _______ _______ _____ _____    ______ ____
ROOT
ATOM      1  C   THR A   4      18.862  30.204  22.276  0.00  0.00    +0.246 C 
ATOM      2  N   PRO A   5      19.502  29.645  23.321  0.00  0.00    -0.272 N 
ATOM      3  CA  PRO A   5      18.665  29.238  24.471  0.00  0.00    +0.152 C 
ATOM      4  CB  PRO A   5      19.661  28.560  25.420  0.00  0.00    +0.031 C 
ATOM      5  CG  PRO A   5      20.791  28.089  24.511  0.00  0.00    +0.024 C 
ATOM      6  CD  PRO A   5      20.896  29.167  23.452  0.00  0.00    +0.094 C 
ATOM      7  O   THR A   4      17.654  30.375  22.281  0.00  0.00    -0.273 OA
ENDROOT
BRANCH   3   8
ATOM      8  C   PRO A   5      17.945  30.373  25.203  0.00  0.00    +0.241 C 
ATOM      9  O   PRO A   5      17.046  30.126  26.024  0.00  0.00    -0.273 OA
ATOM     10  N   LEU A   6      18.324  31.613  24.930  0.00  0.00    -0.297 N 
ATOM     11  H   LEU A   6      19.144  31.784  24.314  0.00  0.00    +0.150 HD
BRANCH  10  12
ATOM     12  CA  LEU A   6      17.589  32.735  25.495  0.00  0.00    +0.149 C 
BRANCH  12  13
ATOM     13  C   LEU A   6      16.157  32.812  24.927  0.00  0.00    +0.241 C 
ATOM     14  O   LEU A   6      15.245  33.272  25.615  0.00  0.00    -0.273 OA
ATOM     15  N   GLN A   7      15.960  32.359  23.685  0.00  0.00    -0.297 N 
ATOM     16  H   GLN A   7      16.778  32.054  23.120  0.00  0.00    +0.150 HD
BRANCH  15  17
ATOM     17  CA  GLN A   7      14.613  32.282  23.099  0.00  0.00    +0.149 C 
BRANCH  17  18
ATOM     18  C   GLN A   7      13.729  31.318  23.909  0.00  0.00    +0.241 C 
ATOM     19  N   THR A   8      14.297  30.196  24.347  0.00  0.00    -0.295 N 
ATOM     20  H   THR A   8      15.284  29.993  24.089  0.00  0.00    +0.150 HD
ATOM     21  O   GLN A   7      12.549  31.593  24.130  0.00  0.00    -0.273 OA
BRANCH  19  22
ATOM     22  CA  THR A   8      13.570  29.245  25.180  0.00  0.00    +0.176 C 
BRANCH  22  23
ATOM     23  C   THR A   8      13.086  29.929  26.445  0.00  0.00    +0.243 C 
ATOM     24  N   LEU A   9      13.988  30.639  27.105  0.00  0.00    -0.298 N 
ATOM     25  H   LEU A   9      14.971  30.654  26.766  0.00  0.00    +0.150 HD
ATOM     26  O   THR A   8      11.935  29.782  26.835  0.00  0.00    -0.273 OA
BRANCH  24  27
ATOM     27  CA  LEU A   9      13.635  31.396  28.291  0.00  0.00    +0.137 C 
BRANCH  27  28
ATOM     28  C   LEU A   9      12.541  32.423  27.974  0.00  0.00    +0.227 C 
ATOM     29  O   LEU A   9      11.605  32.607  28.765  0.00  0.00    -0.286 OA
ENDBRANCH  27  28
BRANCH  27  30
ATOM     30  CB  LEU A   9      14.866  32.090  28.883  0.00  0.00    +0.028 C 
BRANCH  30  31
ATOM     31  CG  LEU A   9      15.949  31.205  29.511  0.00  0.00    +0.002 C 
ATOM     32  CD2 LEU A   9      15.376  30.300  30.584  0.00  0.00    +0.000 C 
ATOM     33  CD1 LEU A   9      17.067  32.064  30.077  0.00  0.00    +0.000 C 
ENDBRANCH  30  31
ENDBRANCH  27  30
ENDBRANCH  24  27
ENDBRANCH  22  23
BRANCH  22  34
ATOM     34  CB  THR A   8      14.459  28.012  25.603  0.00  0.00    +0.137 C 
ATOM     35  CG2 THR A   8      13.701  27.126  26.588  0.00  0.00    +0.034 C 
BRANCH  34  36
ATOM     36  OG1 THR A   8      14.789  27.238  24.447  0.00  0.00    -0.382 OA
ATOM     37  HG1 THR A   8      15.347  26.466  24.717  0.00  0.00    +0.210 HD
ENDBRANCH  34  36
ENDBRANCH  22  34
ENDBRANCH  19  22
ENDBRANCH  17  18
BRANCH  17  38
ATOM     38  CB  GLN A   7      14.655  31.838  21.618  0.00  0.00    +0.039 C 
BRANCH  38  39
ATOM     39  CG  GLN A   7      15.145  32.911  20.638  0.00  0.00    +0.087 C 
BRANCH  39  40
ATOM     40  CD  GLN A   7      15.374  32.394  19.204  0.00  0.00    +0.219 C 
ATOM     41  OE1 GLN A   7      16.300  31.614  18.948  0.00  0.00    -0.275 OA
ATOM     42  NE2 GLN A   7      14.538  32.844  18.266  0.00  0.00    -0.329 N 
ATOM     43 HE21 GLN A   7      13.772  33.499  18.523  0.00  0.00    +0.145 HD
ATOM     44 HE22 GLN A   7      14.652  32.540  17.278  0.00  0.00    +0.145 HD
ENDBRANCH  39  40
ENDBRANCH  38  39
ENDBRANCH  17  38
ENDBRANCH  15  17
ENDBRANCH  12  13
BRANCH  12  45
ATOM     45  CB  LEU A   6      18.365  34.051  25.303  0.00  0.00    +0.029 C 
BRANCH  45  46
ATOM     46  CG  LEU A   6      19.710  34.094  26.062  0.00  0.00    +0.002 C 
ATOM     47  CD2 LEU A   6      19.525  33.901  27.566  0.00  0.00    +0.000 C 
ATOM     48  CD1 LEU A   6      20.474  35.407  25.790  0.00  0.00    +0.000 C 
ENDBRANCH  45  46
ENDBRANCH  12  45
ENDBRANCH  10  12
ENDBRANCH   3   8
BRANCH   1  49
ATOM     49  CA  THR A   4      19.686  30.669  21.054  0.00  0.00    +0.176 C 
BRANCH  49  52
ATOM     50  C   ALA A   3      21.234  32.189  22.222  0.00  0.00    +0.241 C 
ATOM     51  O   ALA A   3      20.319  32.697  22.882  0.00  0.00    -0.273 OA
ATOM     52  N   THR A   4      21.023  31.240  21.314  0.00  0.00    -0.295 N 
ATOM     53  H   THR A   4      21.832  30.886  20.765  0.00  0.00    +0.150 HD
BRANCH  50  54
ATOM     54  CA  ALA A   3      22.692  32.653  22.411  0.00  0.00    +0.149 C 
ATOM     55  CB  ALA A   3      22.978  32.864  23.892  0.00  0.00    +0.031 C 
BRANCH  54  57
ATOM     56  C   TYR A   2      22.759  33.973  20.376  0.00  0.00    +0.241 C 
ATOM     57  N   ALA A   3      22.878  33.901  21.699  0.00  0.00    -0.297 N 
ATOM     58  H   ALA A   3      23.110  34.761  22.235  0.00  0.00    +0.150 HD
ATOM     59  O   TYR A   2      22.686  32.975  19.651  0.00  0.00    -0.273 OA
BRANCH  56  60
ATOM     60  CA  TYR A   2      22.710  35.385  19.777  0.00  0.00    +0.153 C 
BRANCH  60  63
ATOM     61  C   GLU A   1      24.688  35.449  18.353  0.00  0.00    +0.238 C 
ATOM     62  O   GLU A   1      25.465  35.513  19.314  0.00  0.00    -0.274 OA
ATOM     63  N   TYR A   2      23.368  35.456  18.479  0.00  0.00    -0.297 N 
ATOM     64  H   TYR A   2      22.782  35.514  17.622  0.00  0.00    +0.150 HD
BRANCH  61  65
ATOM     65  CA  GLU A   1      25.201  35.398  16.920  0.00  0.00    +0.145 C 
BRANCH  65  66
ATOM     66  N   GLU A   1      26.524  36.005  16.814  0.00  0.00    -0.238 NA
ATOM     67  H   GLU A   1      27.073  36.192  17.677  0.00  0.00    +0.142 HD
ENDBRANCH  65  66
BRANCH  65  68
ATOM     68  CB  GLU A   1      25.190  33.946  16.388  0.00  0.00    +0.038 C 
BRANCH  68  69
ATOM     69  CG  GLU A   1      26.190  33.027  17.044  0.00  0.00    +0.116 C 
BRANCH  69  70
ATOM     70  CD  GLU A   1      26.184  31.629  16.430  0.00  0.00    +0.365 C 
ATOM     71  OE2 GLU A   1      26.005  30.656  17.196  0.00  0.00    -0.246 OA
ATOM     72  OE1 GLU A   1      26.358  31.504  15.187  0.00  0.00    -0.246 OA
ENDBRANCH  69  70
ENDBRANCH  68  69
ENDBRANCH  65  68
ENDBRANCH  61  65
ENDBRANCH  60  63
BRANCH  60  73
ATOM     73  CB  TYR A   2      21.246  35.800  19.618  0.00  0.00    +0.055 C 
BRANCH  73  74
ATOM     74  CG  TYR A   2      21.032  37.286  19.458  0.00  0.00    -0.020 A 
ATOM     75  CD2 TYR A   2      20.929  38.111  20.572  0.00  0.00    -0.001 A 
ATOM     76  CE2 TYR A   2      20.717  39.484  20.443  0.00  0.00    +0.036 A 
ATOM     77  CZ  TYR A   2      20.601  40.033  19.185  0.00  0.00    +0.134 A 
ATOM     78  CE1 TYR A   2      20.702  39.235  18.060  0.00  0.00    +0.036 A 
ATOM     79  CD1 TYR A   2      20.920  37.866  18.200  0.00  0.00    -0.001 A 
BRANCH  77  80
ATOM     80  OH  TYR A   2      20.400  41.390  19.066  0.00  0.00    -0.506 OA
ATOM     81  HH  TYR A   2      20.353  41.796  19.968  0.00  0.00    +0.292 HD
ENDBRANCH  77  80
ENDBRANCH  73  74
ENDBRANCH  60  73
ENDBRANCH  56  60
ENDBRANCH  54  57
ENDBRANCH  50  54
ENDBRANCH  49  52
BRANCH  49  82
ATOM     82  CB  THR A   4      19.755  29.531  20.017  0.00  0.00    +0.137 C 
ATOM     83  CG2 THR A   4      19.891  30.093  18.611  0.00  0.00    +0.034 C 
BRANCH  82  84
ATOM     84  OG1 THR A   4      20.916  28.747  20.273  0.00  0.00    -0.382 OA
ATOM     85  HG1 THR A   4      20.969  28.013  19.611  0.00  0.00    +0.210 HD
ENDBRANCH  82  84
ENDBRANCH  49  82
ENDBRANCH   1  49
TORSDOF 34
REMARK  Name = ../refined-set-2016/4f5y/4f5y_pocket.pdb
REMARK  243 active torsions:
REMARK  status: ('A' for Active; 'I' for Inactive)
REMARK    1  A    between atoms: _1  and  _3
REMARK    2  A    between atoms: _3  and  _4
REMARK    3  A    between atoms: _6  and  _8
REMARK    4  A    between atoms: _8  and  _9
REMARK    5  A    between atoms: _8  and  _11
REMARK    6  A    between atoms: _11  and  _12
REMARK    7  A    between atoms: _15  and  _17
REMARK    8  A    between atoms: _17  and  _18
REMARK    9  A    between atoms: _21  and  _23
REMARK   10  A    between atoms: _23  and  _24
REMARK   11  A    between atoms: _23  and  _26
REMARK   12  A    between atoms: _26  and  _27
REMARK   13  A    between atoms: _37  and  _39
REMARK   14  A    between atoms: _39  and  _40
REMARK   15  A    between atoms: _39  and  _42
REMARK   16  A    between atoms: _42  and  _43
REMARK   17  A    between atoms: _45  and  _47
REMARK   18  A    between atoms: _47  and  _48
REMARK   19  A    between atoms: _47  and  _50
REMARK   20  A    between atoms: _50  and  _51
REMARK   21  A    between atoms: _56  and  _57
REMARK   22  A    between atoms: _59  and  _61
REMARK   23  A    between atoms: _61  and  _62
REMARK   24  A    between atoms: _61  and  _64
REMARK   25  A    between atoms: _64  and  _65
REMARK   26  A    between atoms: _70  and  _71
REMARK   27  A    between atoms: _73  and  _75
REMARK   28  A    between atoms: _75  and  _76
REMARK   29  A    between atoms: _75  and  _78
REMARK   30  A    between atoms: _78  and  _79
REMARK   31  A    between atoms: _82  and  _84
REMARK   32  A    between atoms: _84  and  _85
REMARK   33  A    between atoms: _87  and  _89
REMARK   34  A    between atoms: _89  and  _90
REMARK   35  A    between atoms: _89  and  _92
REMARK   36  A    between atoms: _92  and  _93
REMARK   37  A    between atoms: _98  and  _99
REMARK   38  A    between atoms: _101  and  _103
REMARK   39  A    between atoms: _103  and  _104
REMARK   40  A    between atoms: _103  and  _106
REMARK   41  A    between atoms: _106  and  _107
REMARK   42  A    between atoms: _110  and  _112
REMARK   43  A    between atoms: _112  and  _113
REMARK   44  A    between atoms: _112  and  _115
REMARK   45  A    between atoms: _115  and  _116
REMARK   46  A    between atoms: _119  and  _121
REMARK   47  A    between atoms: _121  and  _122
REMARK   48  A    between atoms: _121  and  _124
REMARK   49  A    between atoms: _124  and  _125
REMARK   50  A    between atoms: _128  and  _130
REMARK   51  A    between atoms: _130  and  _131
REMARK   52  A    between atoms: _130  and  _133
REMARK   53  A    between atoms: _133  and  _134
REMARK   54  A    between atoms: _137  and  _139
REMARK   55  A    between atoms: _139  and  _140
REMARK   56  A    between atoms: _139  and  _142
REMARK   57  A    between atoms: _142  and  _143
REMARK   58  A    between atoms: _143  and  _144
REMARK   59  A    between atoms: _144  and  _145
REMARK   60  A    between atoms: _145  and  _146
REMARK   61  A    between atoms: _150  and  _152
REMARK   62  A    between atoms: _152  and  _153
REMARK   63  A    between atoms: _152  and  _155
REMARK   64  A    between atoms: _155  and  _156
REMARK   65  A    between atoms: _159  and  _161
REMARK   66  A    between atoms: _161  and  _162
REMARK   67  A    between atoms: _161  and  _164
REMARK   68  A    between atoms: _164  and  _165
REMARK   69  A    between atoms: _165  and  _166
REMARK   70  A    between atoms: _166  and  _167
REMARK   71  A    between atoms: _176  and  _178
REMARK   72  A    between atoms: _178  and  _179
REMARK   73  A    between atoms: _178  and  _181
REMARK   74  A    between atoms: _184  and  _186
REMARK   75  A    between atoms: _186  and  _187
REMARK   76  A    between atoms: _186  and  _189
REMARK   77  A    between atoms: _189  and  _190
REMARK   78  A    between atoms: _195  and  _196
REMARK   79  A    between atoms: _198  and  _200
REMARK   80  A    between atoms: _200  and  _201
REMARK   81  A    between atoms: _200  and  _203
REMARK   82  A    between atoms: _203  and  _204
REMARK   83  A    between atoms: _206  and  _208
REMARK   84  A    between atoms: _208  and  _209
REMARK   85  A    between atoms: _208  and  _211
REMARK   86  A    between atoms: _211  and  _212
REMARK   87  A    between atoms: _212  and  _213
REMARK   88  A    between atoms: _216  and  _218
REMARK   89  A    between atoms: _218  and  _219
REMARK   90  A    between atoms: _218  and  _221
REMARK   91  A    between atoms: _221  and  _222
REMARK   92  A    between atoms: _227  and  _228
REMARK   93  A    between atoms: _230  and  _232
REMARK   94  A    between atoms: _232  and  _233
REMARK   95  A    between atoms: _236  and  _238
REMARK   96  A    between atoms: _238  and  _239
REMARK   97  A    between atoms: _238  and  _241
REMARK   98  A    between atoms: _241  and  _242
REMARK   99  A    between atoms: _246  and  _247
REMARK  100  A    between atoms: _252  and  _254
REMARK  101  A    between atoms: _254  and  _255
REMARK  102  A    between atoms: _254  and  _257
REMARK  103  A    between atoms: _257  and  _258
REMARK  104  A    between atoms: _261  and  _263
REMARK  105  A    between atoms: _263  and  _264
REMARK  106  A    between atoms: _263  and  _266
REMARK  107  A    between atoms: _266  and  _267
REMARK  108  A    between atoms: _267  and  _268
REMARK  109  A    between atoms: _273  and  _275
REMARK  110  A    between atoms: _275  and  _276
REMARK  111  A    between atoms: _275  and  _278
REMARK  112  A    between atoms: _278  and  _279
REMARK  113  A    between atoms: _282  and  _284
REMARK  114  A    between atoms: _284  and  _285
REMARK  115  A    between atoms: _284  and  _287
REMARK  116  A    between atoms: _287  and  _288
REMARK  117  A    between atoms: _294  and  _296
REMARK  118  A    between atoms: _296  and  _297
REMARK  119  A    between atoms: _299  and  _301
REMARK  120  A    between atoms: _301  and  _302
REMARK  121  A    between atoms: _301  and  _304
REMARK  122  A    between atoms: _304  and  _305
REMARK  123  A    between atoms: _308  and  _310
REMARK  124  A    between atoms: _310  and  _311
REMARK  125  A    between atoms: _314  and  _316
REMARK  126  A    between atoms: _316  and  _317
REMARK  127  A    between atoms: _316  and  _319
REMARK  128  A    between atoms: _319  and  _320
REMARK  129  A    between atoms: _330  and  _332
REMARK  130  A    between atoms: _332  and  _333
REMARK  131  A    between atoms: _332  and  _335
REMARK  132  A    between atoms: _335  and  _336
REMARK  133  A    between atoms: _338  and  _340
REMARK  134  A    between atoms: _340  and  _341
REMARK  135  A    between atoms: _340  and  _343
REMARK  136  A    between atoms: _343  and  _344
REMARK  137  A    between atoms: _349  and  _350
REMARK  138  A    between atoms: _352  and  _354
REMARK  139  A    between atoms: _354  and  _355
REMARK  140  A    between atoms: _354  and  _357
REMARK  141  A    between atoms: _357  and  _358
REMARK  142  A    between atoms: _363  and  _364
REMARK  143  A    between atoms: _366  and  _368
REMARK  144  A    between atoms: _368  and  _369
REMARK  145  A    between atoms: _368  and  _371
REMARK  146  A    between atoms: _371  and  _372
REMARK  147  A    between atoms: _375  and  _377
REMARK  148  A    between atoms: _377  and  _378
REMARK  149  A    between atoms: _380  and  _382
REMARK  150  A    between atoms: _382  and  _383
REMARK  151  A    between atoms: _382  and  _385
REMARK  152  A    between atoms: _385  and  _386
REMARK  153  A    between atoms: _391  and  _392
REMARK  154  A    between atoms: _394  and  _396
REMARK  155  A    between atoms: _396  and  _397
REMARK  156  A    between atoms: _396  and  _399
REMARK  157  A    between atoms: _399  and  _400
REMARK  158  A    between atoms: _403  and  _405
REMARK  159  A    between atoms: _405  and  _406
REMARK  160  A    between atoms: _405  and  _408
REMARK  161  A    between atoms: _408  and  _409
REMARK  162  A    between atoms: _409  and  _410
REMARK  163  A    between atoms: _410  and  _411
REMARK  164  A    between atoms: _420  and  _422
REMARK  165  A    between atoms: _422  and  _423
REMARK  166  A    between atoms: _422  and  _425
REMARK  167  A    between atoms: _425  and  _426
REMARK  168  A    between atoms: _429  and  _431
REMARK  169  A    between atoms: _431  and  _432
REMARK  170  A    between atoms: _431  and  _434
REMARK  171  A    between atoms: _434  and  _435
REMARK  172  A    between atoms: _438  and  _440
REMARK  173  A    between atoms: _440  and  _441
REMARK  174  A    between atoms: _440  and  _443
REMARK  175  A    between atoms: _443  and  _444
REMARK  176  A    between atoms: _447  and  _449
REMARK  177  A    between atoms: _449  and  _450
REMARK  178  A    between atoms: _449  and  _452
REMARK  179  A    between atoms: _452  and  _453
REMARK  180  A    between atoms: _456  and  _458
REMARK  181  A    between atoms: _458  and  _459
REMARK  182  A    between atoms: _458  and  _461
REMARK  183  A    between atoms: _461  and  _462
REMARK  184  A    between atoms: _462  and  _463
REMARK  185  A    between atoms: _463  and  _464
REMARK  186  A    between atoms: _473  and  _475
REMARK  187  A    between atoms: _475  and  _476
REMARK  188  A    between atoms: _475  and  _478
REMARK  189  A    between atoms: _481  and  _483
REMARK  190  A    between atoms: _483  and  _484
REMARK  191  A    between atoms: _483  and  _486
REMARK  192  A    between atoms: _486  and  _487
REMARK  193  A    between atoms: _492  and  _493
REMARK  194  A    between atoms: _495  and  _497
REMARK  195  A    between atoms: _497  and  _498
REMARK  196  A    between atoms: _497  and  _500
REMARK  197  A    between atoms: _500  and  _501
REMARK  198  A    between atoms: _503  and  _505
REMARK  199  A    between atoms: _505  and  _506
REMARK  200  A    between atoms: _505  and  _508
REMARK  201  A    between atoms: _508  and  _509
REMARK  202  A    between atoms: _514  and  _516
REMARK  203  A    between atoms: _516  and  _517
REMARK  204  A    between atoms: _516  and  _519
REMARK  205  A    between atoms: _519  and  _520
REMARK  206  A    between atoms: _522  and  _524
REMARK  207  A    between atoms: _524  and  _525
REMARK  208  A    between atoms: _524  and  _527
REMARK  209  A    between atoms: _527  and  _528
REMARK  210  A    between atoms: _528  and  _529
REMARK  211  A    between atoms: _532  and  _534
REMARK  212  A    between atoms: _534  and  _535
REMARK  213  A    between atoms: _534  and  _537
REMARK  214  A    between atoms: _537  and  _538
REMARK  215  A    between atoms: _543  and  _544
REMARK  216  A    between atoms: _546  and  _548
REMARK  217  A    between atoms: _548  and  _549
REMARK  218  A    between atoms: _552  and  _554
REMARK  219  A    between atoms: _554  and  _555
REMARK  220  A    between atoms: _554  and  _557
REMARK  221  A    between atoms: _557  and  _558
REMARK  222  A    between atoms: _562  and  _563
REMARK  223  A    between atoms: _568  and  _570
REMARK  224  A    between atoms: _570  and  _571
REMARK  225  A    between atoms: _570  and  _573
REMARK  226  A    between atoms: _573  and  _574
REMARK  227  A    between atoms: _577  and  _579
REMARK  228  A    between atoms: _579  and  _580
REMARK  229  A    between atoms: _579  and  _582
REMARK  230  A    between atoms: _582  and  _583
REMARK  231  A    between atoms: _583  and  _584
REMARK  232  A    between atoms: _589  and  _591
REMARK  233  A    between atoms: _591  and  _592
REMARK  234  A    between atoms: _591  and  _594
REMARK  235  A    between atoms: _594  and  _595
REMARK  236  A    between atoms: _598  and  _600
REMARK  237  A    between atoms: _600  and  _601
REMARK  238  A    between atoms: _600  and  _603
REMARK  239  A    between atoms: _603  and  _604
REMARK  240  A    between atoms: _607  and  _609
REMARK  241  A    between atoms: _609  and  _610
REMARK  242  A    between atoms: _609  and  _612
REMARK  243  A    between atoms: _612  and  _613
REMARK                            x       y       z     vdW  Elec       q    Type
REMARK                         _______ _______ _______ _____ _____    ______ ____
ROOT
ATOM      1  CB  PHE A   1      21.576  31.180  30.907  0.00  0.00    +0.051 C 
ENDROOT
BRANCH   1   2
ATOM      2  CG  PHE A   1      22.049  30.663  29.573  0.00  0.00    -0.020 A 
ATOM      3  CD2 PHE A   1      21.834  29.335  29.215  0.00  0.00    -0.004 A 
ATOM      4  CE2 PHE A   1      22.288  28.844  27.991  0.00  0.00    -0.000 A 
ATOM      5  CZ  PHE A   1      22.965  29.675  27.105  0.00  0.00    -0.000 A 
ATOM      6  CE1 PHE A   1      23.177  31.008  27.449  0.00  0.00    -0.000 A 
ATOM      7  CD1 PHE A   1      22.733  31.494  28.681  0.00  0.00    -0.004 A 
ENDBRANCH   1   2
BRANCH   1   8
ATOM      8  CA  PHE A   1      22.540  30.865  32.053  0.00  0.00    +0.137 C 
BRANCH   8   9
ATOM      9  N   PHE A   1      22.081  31.430  33.304  0.00  0.00    -0.239 NA
ATOM     10  H   PHE A   1      21.199  31.980  33.332  0.00  0.00    +0.142 HD
ENDBRANCH   8   9
BRANCH   8  11
ATOM     11  C   PHE A   1      23.982  31.310  31.722  0.00  0.00    +0.224 C 
ATOM     12  O   PHE A   1      24.846  30.455  31.425  0.00  0.00    -0.287 OA
ENDBRANCH   8  11
ENDBRANCH   1   8
TORSDOF 4
REMARK  Name = ../refined-set-2016/4f5y/4f5y_pocket.pdb
REMARK  243 active torsions:
REMARK  status: ('A' for Active; 'I' for Inactive)
REMARK    1  A    between atoms: _1  and  _3
REMARK    2  A    between atoms: _3  and  _4
REMARK    3  A    between atoms: _6  and  _8
REMARK    4  A    between atoms: _8  and  _9
REMARK    5  A    between atoms: _8  and  _11
REMARK    6  A    between atoms: _11  and  _12
REMARK    7  A    between atoms: _15  and  _17
REMARK    8  A    between atoms: _17  and  _18
REMARK    9  A    between atoms: _21  and  _23
REMARK   10  A    between atoms: _23  and  _24
REMARK   11  A    between atoms: _23  and  _26
REMARK   12  A    between atoms: _26  and  _27
REMARK   13  A    between atoms: _37  and  _39
REMARK   14  A    between atoms: _39  and  _40
REMARK   15  A    between atoms: _39  and  _42
REMARK   16  A    between atoms: _42  and  _43
REMARK   17  A    between atoms: _45  and  _47
REMARK   18  A    between atoms: _47  and  _48
REMARK   19  A    between atoms: _47  and  _50
REMARK   20  A    between atoms: _50  and  _51
REMARK   21  A    between atoms: _56  and  _57
REMARK   22  A    between atoms: _59  and  _61
REMARK   23  A    between atoms: _61  and  _62
REMARK   24  A    between atoms: _61  and  _64
REMARK   25  A    between atoms: _64  and  _65
REMARK   26  A    between atoms: _70  and  _71
REMARK   27  A    between atoms: _73  and  _75
REMARK   28  A    between atoms: _75  and  _76
REMARK   29  A    between atoms: _75  and  _78
REMARK   30  A    between atoms: _78  and  _79
REMARK   31  A    between atoms: _82  and  _84
REMARK   32  A    between atoms: _84  and  _85
REMARK   33  A    between atoms: _87  and  _89
REMARK   34  A    between atoms: _89  and  _90
REMARK   35  A    between atoms: _89  and  _92
REMARK   36  A    between atoms: _92  and  _93
REMARK   37  A    between atoms: _98  and  _99
REMARK   38  A    between atoms: _101  and  _103
REMARK   39  A    between atoms: _103  and  _104
REMARK   40  A    between atoms: _103  and  _106
REMARK   41  A    between atoms: _106  and  _107
REMARK   42  A    between atoms: _110  and  _112
REMARK   43  A    between atoms: _112  and  _113
REMARK   44  A    between atoms: _112  and  _115
REMARK   45  A    between atoms: _115  and  _116
REMARK   46  A    between atoms: _119  and  _121
REMARK   47  A    between atoms: _121  and  _122
REMARK   48  A    between atoms: _121  and  _124
REMARK   49  A    between atoms: _124  and  _125
REMARK   50  A    between atoms: _128  and  _130
REMARK   51  A    between atoms: _130  and  _131
REMARK   52  A    between atoms: _130  and  _133
REMARK   53  A    between atoms: _133  and  _134
REMARK   54  A    between atoms: _137  and  _139
REMARK   55  A    between atoms: _139  and  _140
REMARK   56  A    between atoms: _139  and  _142
REMARK   57  A    between atoms: _142  and  _143
REMARK   58  A    between atoms: _143  and  _144
REMARK   59  A    between atoms: _144  and  _145
REMARK   60  A    between atoms: _145  and  _146
REMARK   61  A    between atoms: _150  and  _152
REMARK   62  A    between atoms: _152  and  _153
REMARK   63  A    between atoms: _152  and  _155
REMARK   64  A    between atoms: _155  and  _156
REMARK   65  A    between atoms: _159  and  _161
REMARK   66  A    between atoms: _161  and  _162
REMARK   67  A    between atoms: _161  and  _164
REMARK   68  A    between atoms: _164  and  _165
REMARK   69  A    between atoms: _165  and  _166
REMARK   70  A    between atoms: _166  and  _167
REMARK   71  A    between atoms: _176  and  _178
REMARK   72  A    between atoms: _178  and  _179
REMARK   73  A    between atoms: _178  and  _181
REMARK   74  A    between atoms: _184  and  _186
REMARK   75  A    between atoms: _186  and  _187
REMARK   76  A    between atoms: _186  and  _189
REMARK   77  A    between atoms: _189  and  _190
REMARK   78  A    between atoms: _195  and  _196
REMARK   79  A    between atoms: _198  and  _200
REMARK   80  A    between atoms: _200  and  _201
REMARK   81  A    between atoms: _200  and  _203
REMARK   82  A    between atoms: _203  and  _204
REMARK   83  A    between atoms: _206  and  _208
REMARK   84  A    between atoms: _208  and  _209
REMARK   85  A    between atoms: _208  and  _211
REMARK   86  A    between atoms: _211  and  _212
REMARK   87  A    between atoms: _212  and  _213
REMARK   88  A    between atoms: _216  and  _218
REMARK   89  A    between atoms: _218  and  _219
REMARK   90  A    between atoms: _218  and  _221
REMARK   91  A    between atoms: _221  and  _222
REMARK   92  A    between atoms: _227  and  _228
REMARK   93  A    between atoms: _230  and  _232
REMARK   94  A    between atoms: _232  and  _233
REMARK   95  A    between atoms: _236  and  _238
REMARK   96  A    between atoms: _238  and  _239
REMARK   97  A    between atoms: _238  and  _241
REMARK   98  A    between atoms: _241  and  _242
REMARK   99  A    between atoms: _246  and  _247
REMARK  100  A    between atoms: _252  and  _254
REMARK  101  A    between atoms: _254  and  _255
REMARK  102  A    between atoms: _254  and  _257
REMARK  103  A    between atoms: _257  and  _258
REMARK  104  A    between atoms: _261  and  _263
REMARK  105  A    between atoms: _263  and  _264
REMARK  106  A    between atoms: _263  and  _266
REMARK  107  A    between atoms: _266  and  _267
REMARK  108  A    between atoms: _267  and  _268
REMARK  109  A    between atoms: _273  and  _275
REMARK  110  A    between atoms: _275  and  _276
REMARK  111  A    between atoms: _275  and  _278
REMARK  112  A    between atoms: _278  and  _279
REMARK  113  A    between atoms: _282  and  _284
REMARK  114  A    between atoms: _284  and  _285
REMARK  115  A    between atoms: _284  and  _287
REMARK  116  A    between atoms: _287  and  _288
REMARK  117  A    between atoms: _294  and  _296
REMARK  118  A    between atoms: _296  and  _297
REMARK  119  A    between atoms: _299  and  _301
REMARK  120  A    between atoms: _301  and  _302
REMARK  121  A    between atoms: _301  and  _304
REMARK  122  A    between atoms: _304  and  _305
REMARK  123  A    between atoms: _308  and  _310
REMARK  124  A    between atoms: _310  and  _311
REMARK  125  A    between atoms: _314  and  _316
REMARK  126  A    between atoms: _316  and  _317
REMARK  127  A    between atoms: _316  and  _319
REMARK  128  A    between atoms: _319  and  _320
REMARK  129  A    between atoms: _330  and  _332
REMARK  130  A    between atoms: _332  and  _333
REMARK  131  A    between atoms: _332  and  _335
REMARK  132  A    between atoms: _335  and  _336
REMARK  133  A    between atoms: _338  and  _340
REMARK  134  A    between atoms: _340  and  _341
REMARK  135  A    between atoms: _340  and  _343
REMARK  136  A    between atoms: _343  and  _344
REMARK  137  A    between atoms: _349  and  _350
REMARK  138  A    between atoms: _352  and  _354
REMARK  139  A    between atoms: _354  and  _355
REMARK  140  A    between atoms: _354  and  _357
REMARK  141  A    between atoms: _357  and  _358
REMARK  142  A    between atoms: _363  and  _364
REMARK  143  A    between atoms: _366  and  _368
REMARK  144  A    between atoms: _368  and  _369
REMARK  145  A    between atoms: _368  and  _371
REMARK  146  A    between atoms: _371  and  _372
REMARK  147  A    between atoms: _375  and  _377
REMARK  148  A    between atoms: _377  and  _378
REMARK  149  A    between atoms: _380  and  _382
REMARK  150  A    between atoms: _382  and  _383
REMARK  151  A    between atoms: _382  and  _385
REMARK  152  A    between atoms: _385  and  _386
REMARK  153  A    between atoms: _391  and  _392
REMARK  154  A    between atoms: _394  and  _396
REMARK  155  A    between atoms: _396  and  _397
REMARK  156  A    between atoms: _396  and  _399
REMARK  157  A    between atoms: _399  and  _400
REMARK  158  A    between atoms: _403  and  _405
REMARK  159  A    between atoms: _405  and  _406
REMARK  160  A    between atoms: _405  and  _408
REMARK  161  A    between atoms: _408  and  _409
REMARK  162  A    between atoms: _409  and  _410
REMARK  163  A    between atoms: _410  and  _411
REMARK  164  A    between atoms: _420  and  _422
REMARK  165  A    between atoms: _422  and  _423
REMARK  166  A    between atoms: _422  and  _425
REMARK  167  A    between atoms: _425  and  _426
REMARK  168  A    between atoms: _429  and  _431
REMARK  169  A    between atoms: _431  and  _432
REMARK  170  A    between atoms: _431  and  _434
REMARK  171  A    between atoms: _434  and  _435
REMARK  172  A    between atoms: _438  and  _440
REMARK  173  A    between atoms: _440  and  _441
REMARK  174  A    between atoms: _440  and  _443
REMARK  175  A    between atoms: _443  and  _444
REMARK  176  A    between atoms: _447  and  _449
REMARK  177  A    between atoms: _449  and  _450
REMARK  178  A    between atoms: _449  and  _452
REMARK  179  A    between atoms: _452  and  _453
REMARK  180  A    between atoms: _456  and  _458
REMARK  181  A    between atoms: _458  and  _459
REMARK  182  A    between atoms: _458  and  _461
REMARK  183  A    between atoms: _461  and  _462
REMARK  184  A    between atoms: _462  and  _463
REMARK  185  A    between atoms: _463  and  _464
REMARK  186  A    between atoms: _473  and  _475
REMARK  187  A    between atoms: _475  and  _476
REMARK  188  A    between atoms: _475  and  _478
REMARK  189  A    between atoms: _481  and  _483
REMARK  190  A    between atoms: _483  and  _484
REMARK  191  A    between atoms: _483  and  _486
REMARK  192  A    between atoms: _486  and  _487
REMARK  193  A    between atoms: _492  and  _493
REMARK  194  A    between atoms: _495  and  _497
REMARK  195  A    between atoms: _497  and  _498
REMARK  196  A    between atoms: _497  and  _500
REMARK  197  A    between atoms: _500  and  _501
REMARK  198  A    between atoms: _503  and  _505
REMARK  199  A    between atoms: _505  and  _506
REMARK  200  A    between atoms: _505  and  _508
REMARK  201  A    between atoms: _508  and  _509
REMARK  202  A    between atoms: _514  and  _516
REMARK  203  A    between atoms: _516  and  _517
REMARK  204  A    between atoms: _516  and  _519
REMARK  205  A    between atoms: _519  and  _520
REMARK  206  A    between atoms: _522  and  _524
REMARK  207  A    between atoms: _524  and  _525
REMARK  208  A    between atoms: _524  and  _527
REMARK  209  A    between atoms: _527  and  _528
REMARK  210  A    between atoms: _528  and  _529
REMARK  211  A    between atoms: _532  and  _534
REMARK  212  A    between atoms: _534  and  _535
REMARK  213  A    between atoms: _534  and  _537
REMARK  214  A    between atoms: _537  and  _538
REMARK  215  A    between atoms: _543  and  _544
REMARK  216  A    between atoms: _546  and  _548
REMARK  217  A    between atoms: _548  and  _549
REMARK  218  A    between atoms: _552  and  _554
REMARK  219  A    between atoms: _554  and  _555
REMARK  220  A    between atoms: _554  and  _557
REMARK  221  A    between atoms: _557  and  _558
REMARK  222  A    between atoms: _562  and  _563
REMARK  223  A    between atoms: _568  and  _570
REMARK  224  A    between atoms: _570  and  _571
REMARK  225  A    between atoms: _570  and  _573
REMARK  226  A    between atoms: _573  and  _574
REMARK  227  A    between atoms: _577  and  _579
REMARK  228  A    between atoms: _579  and  _580
REMARK  229  A    between atoms: _579  and  _582
REMARK  230  A    between atoms: _582  and  _583
REMARK  231  A    between atoms: _583  and  _584
REMARK  232  A    between atoms: _589  and  _591
REMARK  233  A    between atoms: _591  and  _592
REMARK  234  A    between atoms: _591  and  _594
REMARK  235  A    between atoms: _594  and  _595
REMARK  236  A    between atoms: _598  and  _600
REMARK  237  A    between atoms: _600  and  _601
REMARK  238  A    between atoms: _600  and  _603
REMARK  239  A    between atoms: _603  and  _604
REMARK  240  A    between atoms: _607  and  _609
REMARK  241  A    between atoms: _609  and  _610
REMARK  242  A    between atoms: _609  and  _612
REMARK  243  A    between atoms: _612  and  _613
REMARK                            x       y       z     vdW  Elec       q    Type
REMARK                         _______ _______ _______ _____ _____    ______ ____
ROOT
ATOM      1  O   HOH     1      12.710  13.594  19.358  0.00  0.00    +0.000 OA
ENDROOT
TORSDOF 0
REMARK  Name = ../refined-set-2016/4f5y/4f5y_pocket.pdb
REMARK  243 active torsions:
REMARK  status: ('A' for Active; 'I' for Inactive)
REMARK    1  A    between atoms: _1  and  _3
REMARK    2  A    between atoms: _3  and  _4
REMARK    3  A    between atoms: _6  and  _8
REMARK    4  A    between atoms: _8  and  _9
REMARK    5  A    between atoms: _8  and  _11
REMARK    6  A    between atoms: _11  and  _12
REMARK    7  A    between atoms: _15  and  _17
REMARK    8  A    between atoms: _17  and  _18
REMARK    9  A    between atoms: _21  and  _23
REMARK   10  A    between atoms: _23  and  _24
REMARK   11  A    between atoms: _23  and  _26
REMARK   12  A    between atoms: _26  and  _27
REMARK   13  A    between atoms: _37  and  _39
REMARK   14  A    between atoms: _39  and  _40
REMARK   15  A    between atoms: _39  and  _42
REMARK   16  A    between atoms: _42  and  _43
REMARK   17  A    between atoms: _45  and  _47
REMARK   18  A    between atoms: _47  and  _48
REMARK   19  A    between atoms: _47  and  _50
REMARK   20  A    between atoms: _50  and  _51
REMARK   21  A    between atoms: _56  and  _57
REMARK   22  A    between atoms: _59  and  _61
REMARK   23  A    between atoms: _61  and  _62
REMARK   24  A    between atoms: _61  and  _64
REMARK   25  A    between atoms: _64  and  _65
REMARK   26  A    between atoms: _70  and  _71
REMARK   27  A    between atoms: _73  and  _75
REMARK   28  A    between atoms: _75  and  _76
REMARK   29  A    between atoms: _75  and  _78
REMARK   30  A    between atoms: _78  and  _79
REMARK   31  A    between atoms: _82  and  _84
REMARK   32  A    between atoms: _84  and  _85
REMARK   33  A    between atoms: _87  and  _89
REMARK   34  A    between atoms: _89  and  _90
REMARK   35  A    between atoms: _89  and  _92
REMARK   36  A    between atoms: _92  and  _93
REMARK   37  A    between atoms: _98  and  _99
REMARK   38  A    between atoms: _101  and  _103
REMARK   39  A    between atoms: _103  and  _104
REMARK   40  A    between atoms: _103  and  _106
REMARK   41  A    between atoms: _106  and  _107
REMARK   42  A    between atoms: _110  and  _112
REMARK   43  A    between atoms: _112  and  _113
REMARK   44  A    between atoms: _112  and  _115
REMARK   45  A    between atoms: _115  and  _116
REMARK   46  A    between atoms: _119  and  _121
REMARK   47  A    between atoms: _121  and  _122
REMARK   48  A    between atoms: _121  and  _124
REMARK   49  A    between atoms: _124  and  _125
REMARK   50  A    between atoms: _128  and  _130
REMARK   51  A    between atoms: _130  and  _131
REMARK   52  A    between atoms: _130  and  _133
REMARK   53  A    between atoms: _133  and  _134
REMARK   54  A    between atoms: _137  and  _139
REMARK   55  A    between atoms: _139  and  _140
REMARK   56  A    between atoms: _139  and  _142
REMARK   57  A    between atoms: _142  and  _143
REMARK   58  A    between atoms: _143  and  _144
REMARK   59  A    between atoms: _144  and  _145
REMARK   60  A    between atoms: _145  and  _146
REMARK   61  A    between atoms: _150  and  _152
REMARK   62  A    between atoms: _152  and  _153
REMARK   63  A    between atoms: _152  and  _155
REMARK   64  A    between atoms: _155  and  _156
REMARK   65  A    between atoms: _159  and  _161
REMARK   66  A    between atoms: _161  and  _162
REMARK   67  A    between atoms: _161  and  _164
REMARK   68  A    between atoms: _164  and  _165
REMARK   69  A    between atoms: _165  and  _166
REMARK   70  A    between atoms: _166  and  _167
REMARK   71  A    between atoms: _176  and  _178
REMARK   72  A    between atoms: _178  and  _179
REMARK   73  A    between atoms: _178  and  _181
REMARK   74  A    between atoms: _184  and  _186
REMARK   75  A    between atoms: _186  and  _187
REMARK   76  A    between atoms: _186  and  _189
REMARK   77  A    between atoms: _189  and  _190
REMARK   78  A    between atoms: _195  and  _196
REMARK   79  A    between atoms: _198  and  _200
REMARK   80  A    between atoms: _200  and  _201
REMARK   81  A    between atoms: _200  and  _203
REMARK   82  A    between atoms: _203  and  _204
REMARK   83  A    between atoms: _206  and  _208
REMARK   84  A    between atoms: _208  and  _209
REMARK   85  A    between atoms: _208  and  _211
REMARK   86  A    between atoms: _211  and  _212
REMARK   87  A    between atoms: _212  and  _213
REMARK   88  A    between atoms: _216  and  _218
REMARK   89  A    between atoms: _218  and  _219
REMARK   90  A    between atoms: _218  and  _221
REMARK   91  A    between atoms: _221  and  _222
REMARK   92  A    between atoms: _227  and  _228
REMARK   93  A    between atoms: _230  and  _232
REMARK   94  A    between atoms: _232  and  _233
REMARK   95  A    between atoms: _236  and  _238
REMARK   96  A    between atoms: _238  and  _239
REMARK   97  A    between atoms: _238  and  _241
REMARK   98  A    between atoms: _241  and  _242
REMARK   99  A    between atoms: _246  and  _247
REMARK  100  A    between atoms: _252  and  _254
REMARK  101  A    between atoms: _254  and  _255
REMARK  102  A    between atoms: _254  and  _257
REMARK  103  A    between atoms: _257  and  _258
REMARK  104  A    between atoms: _261  and  _263
REMARK  105  A    between atoms: _263  and  _264
REMARK  106  A    between atoms: _263  and  _266
REMARK  107  A    between atoms: _266  and  _267
REMARK  108  A    between atoms: _267  and  _268
REMARK  109  A    between atoms: _273  and  _275
REMARK  110  A    between atoms: _275  and  _276
REMARK  111  A    between atoms: _275  and  _278
REMARK  112  A    between atoms: _278  and  _279
REMARK  113  A    between atoms: _282  and  _284
REMARK  114  A    between atoms: _284  and  _285
REMARK  115  A    between atoms: _284  and  _287
REMARK  116  A    between atoms: _287  and  _288
REMARK  117  A    between atoms: _294  and  _296
REMARK  118  A    between atoms: _296  and  _297
REMARK  119  A    between atoms: _299  and  _301
REMARK  120  A    between atoms: _301  and  _302
REMARK  121  A    between atoms: _301  and  _304
REMARK  122  A    between atoms: _304  and  _305
REMARK  123  A    between atoms: _308  and  _310
REMARK  124  A    between atoms: _310  and  _311
REMARK  125  A    between atoms: _314  and  _316
REMARK  126  A    between atoms: _316  and  _317
REMARK  127  A    between atoms: _316  and  _319
REMARK  128  A    between atoms: _319  and  _320
REMARK  129  A    between atoms: _330  and  _332
REMARK  130  A    between atoms: _332  and  _333
REMARK  131  A    between atoms: _332  and  _335
REMARK  132  A    between atoms: _335  and  _336
REMARK  133  A    between atoms: _338  and  _340
REMARK  134  A    between atoms: _340  and  _341
REMARK  135  A    between atoms: _340  and  _343
REMARK  136  A    between atoms: _343  and  _344
REMARK  137  A    between atoms: _349  and  _350
REMARK  138  A    between atoms: _352  and  _354
REMARK  139  A    between atoms: _354  and  _355
REMARK  140  A    between atoms: _354  and  _357
REMARK  141  A    between atoms: _357  and  _358
REMARK  142  A    between atoms: _363  and  _364
REMARK  143  A    between atoms: _366  and  _368
REMARK  144  A    between atoms: _368  and  _369
REMARK  145  A    between atoms: _368  and  _371
REMARK  146  A    between atoms: _371  and  _372
REMARK  147  A    between atoms: _375  and  _377
REMARK  148  A    between atoms: _377  and  _378
REMARK  149  A    between atoms: _380  and  _382
REMARK  150  A    between atoms: _382  and  _383
REMARK  151  A    between atoms: _382  and  _385
REMARK  152  A    between atoms: _385  and  _386
REMARK  153  A    between atoms: _391  and  _392
REMARK  154  A    between atoms: _394  and  _396
REMARK  155  A    between atoms: _396  and  _397
REMARK  156  A    between atoms: _396  and  _399
REMARK  157  A    between atoms: _399  and  _400
REMARK  158  A    between atoms: _403  and  _405
REMARK  159  A    between atoms: _405  and  _406
REMARK  160  A    between atoms: _405  and  _408
REMARK  161  A    between atoms: _408  and  _409
REMARK  162  A    between atoms: _409  and  _410
REMARK  163  A    between atoms: _410  and  _411
REMARK  164  A    between atoms: _420  and  _422
REMARK  165  A    between atoms: _422  and  _423
REMARK  166  A    between atoms: _422  and  _425
REMARK  167  A    between atoms: _425  and  _426
REMARK  168  A    between atoms: _429  and  _431
REMARK  169  A    between atoms: _431  and  _432
REMARK  170  A    between atoms: _431  and  _434
REMARK  171  A    between atoms: _434  and  _435
REMARK  172  A    between atoms: _438  and  _440
REMARK  173  A    between atoms: _440  and  _441
REMARK  174  A    between atoms: _440  and  _443
REMARK  175  A    between atoms: _443  and  _444
REMARK  176  A    between atoms: _447  and  _449
REMARK  177  A    between atoms: _449  and  _450
REMARK  178  A    between atoms: _449  and  _452
REMARK  179  A    between atoms: _452  and  _453
REMARK  180  A    between atoms: _456  and  _458
REMARK  181  A    between atoms: _458  and  _459
REMARK  182  A    between atoms: _458  and  _461
REMARK  183  A    between atoms: _461  and  _462
REMARK  184  A    between atoms: _462  and  _463
REMARK  185  A    between atoms: _463  and  _464
REMARK  186  A    between atoms: _473  and  _475
REMARK  187  A    between atoms: _475  and  _476
REMARK  188  A    between atoms: _475  and  _478
REMARK  189  A    between atoms: _481  and  _483
REMARK  190  A    between atoms: _483  and  _484
REMARK  191  A    between atoms: _483  and  _486
REMARK  192  A    between atoms: _486  and  _487
REMARK  193  A    between atoms: _492  and  _493
REMARK  194  A    between atoms: _495  and  _497
REMARK  195  A    between atoms: _497  and  _498
REMARK  196  A    between atoms: _497  and  _500
REMARK  197  A    between atoms: _500  and  _501
REMARK  198  A    between atoms: _503  and  _505
REMARK  199  A    between atoms: _505  and  _506
REMARK  200  A    between atoms: _505  and  _508
REMARK  201  A    between atoms: _508  and  _509
REMARK  202  A    between atoms: _514  and  _516
REMARK  203  A    between atoms: _516  and  _517
REMARK  204  A    between atoms: _516  and  _519
REMARK  205  A    between atoms: _519  and  _520
REMARK  206  A    between atoms: _522  and  _524
REMARK  207  A    between atoms: _524  and  _525
REMARK  208  A    between atoms: _524  and  _527
REMARK  209  A    between atoms: _527  and  _528
REMARK  210  A    between atoms: _528  and  _529
REMARK  211  A    between atoms: _532  and  _534
REMARK  212  A    between atoms: _534  and  _535
REMARK  213  A    between atoms: _534  and  _537
REMARK  214  A    between atoms: _537  and  _538
REMARK  215  A    between atoms: _543  and  _544
REMARK  216  A    between atoms: _546  and  _548
REMARK  217  A    between atoms: _548  and  _549
REMARK  218  A    between atoms: _552  and  _554
REMARK  219  A    between atoms: _554  and  _555
REMARK  220  A    between atoms: _554  and  _557
REMARK  221  A    between atoms: _557  and  _558
REMARK  222  A    between atoms: _562  and  _563
REMARK  223  A    between atoms: _568  and  _570
REMARK  224  A    between atoms: _570  and  _571
REMARK  225  A    between atoms: _570  and  _573
REMARK  226  A    between atoms: _573  and  _574
REMARK  227  A    between atoms: _577  and  _579
REMARK  228  A    between atoms: _579  and  _580
REMARK  229  A    between atoms: _579  and  _582
REMARK  230  A    between atoms: _582  and  _583
REMARK  231  A    between atoms: _583  and  _584
REMARK  232  A    between atoms: _589  and  _591
REMARK  233  A    between atoms: _591  and  _592
REMARK  234  A    between atoms: _591  and  _594
REMARK  235  A    between atoms: _594  and  _595
REMARK  236  A    between atoms: _598  and  _600
REMARK  237  A    between atoms: _600  and  _601
REMARK  238  A    between atoms: _600  and  _603
REMARK  239  A    between atoms: _603  and  _604
REMARK  240  A    between atoms: _607  and  _609
REMARK  241  A    between atoms: _609  and  _610
REMARK  242  A    between atoms: _609  and  _612
REMARK  243  A    between atoms: _612  and  _613
REMARK                            x       y       z     vdW  Elec       q    Type
REMARK                         _______ _______ _______ _____ _____    ______ ____
ROOT
ATOM      1  O   HOH     1      18.772  20.699  17.452  0.00  0.00    +0.000 OA
ENDROOT
TORSDOF 0
REMARK  Name = ../refined-set-2016/4f5y/4f5y_pocket.pdb
REMARK  243 active torsions:
REMARK  status: ('A' for Active; 'I' for Inactive)
REMARK    1  A    between atoms: _1  and  _3
REMARK    2  A    between atoms: _3  and  _4
REMARK    3  A    between atoms: _6  and  _8
REMARK    4  A    between atoms: _8  and  _9
REMARK    5  A    between atoms: _8  and  _11
REMARK    6  A    between atoms: _11  and  _12
REMARK    7  A    between atoms: _15  and  _17
REMARK    8  A    between atoms: _17  and  _18
REMARK    9  A    between atoms: _21  and  _23
REMARK   10  A    between atoms: _23  and  _24
REMARK   11  A    between atoms: _23  and  _26
REMARK   12  A    between atoms: _26  and  _27
REMARK   13  A    between atoms: _37  and  _39
REMARK   14  A    between atoms: _39  and  _40
REMARK   15  A    between atoms: _39  and  _42
REMARK   16  A    between atoms: _42  and  _43
REMARK   17  A    between atoms: _45  and  _47
REMARK   18  A    between atoms: _47  and  _48
REMARK   19  A    between atoms: _47  and  _50
REMARK   20  A    between atoms: _50  and  _51
REMARK   21  A    between atoms: _56  and  _57
REMARK   22  A    between atoms: _59  and  _61
REMARK   23  A    between atoms: _61  and  _62
REMARK   24  A    between atoms: _61  and  _64
REMARK   25  A    between atoms: _64  and  _65
REMARK   26  A    between atoms: _70  and  _71
REMARK   27  A    between atoms: _73  and  _75
REMARK   28  A    between atoms: _75  and  _76
REMARK   29  A    between atoms: _75  and  _78
REMARK   30  A    between atoms: _78  and  _79
REMARK   31  A    between atoms: _82  and  _84
REMARK   32  A    between atoms: _84  and  _85
REMARK   33  A    between atoms: _87  and  _89
REMARK   34  A    between atoms: _89  and  _90
REMARK   35  A    between atoms: _89  and  _92
REMARK   36  A    between atoms: _92  and  _93
REMARK   37  A    between atoms: _98  and  _99
REMARK   38  A    between atoms: _101  and  _103
REMARK   39  A    between atoms: _103  and  _104
REMARK   40  A    between atoms: _103  and  _106
REMARK   41  A    between atoms: _106  and  _107
REMARK   42  A    between atoms: _110  and  _112
REMARK   43  A    between atoms: _112  and  _113
REMARK   44  A    between atoms: _112  and  _115
REMARK   45  A    between atoms: _115  and  _116
REMARK   46  A    between atoms: _119  and  _121
REMARK   47  A    between atoms: _121  and  _122
REMARK   48  A    between atoms: _121  and  _124
REMARK   49  A    between atoms: _124  and  _125
REMARK   50  A    between atoms: _128  and  _130
REMARK   51  A    between atoms: _130  and  _131
REMARK   52  A    between atoms: _130  and  _133
REMARK   53  A    between atoms: _133  and  _134
REMARK   54  A    between atoms: _137  and  _139
REMARK   55  A    between atoms: _139  and  _140
REMARK   56  A    between atoms: _139  and  _142
REMARK   57  A    between atoms: _142  and  _143
REMARK   58  A    between atoms: _143  and  _144
REMARK   59  A    between atoms: _144  and  _145
REMARK   60  A    between atoms: _145  and  _146
REMARK   61  A    between atoms: _150  and  _152
REMARK   62  A    between atoms: _152  and  _153
REMARK   63  A    between atoms: _152  and  _155
REMARK   64  A    between atoms: _155  and  _156
REMARK   65  A    between atoms: _159  and  _161
REMARK   66  A    between atoms: _161  and  _162
REMARK   67  A    between atoms: _161  and  _164
REMARK   68  A    between atoms: _164  and  _165
REMARK   69  A    between atoms: _165  and  _166
REMARK   70  A    between atoms: _166  and  _167
REMARK   71  A    between atoms: _176  and  _178
REMARK   72  A    between atoms: _178  and  _179
REMARK   73  A    between atoms: _178  and  _181
REMARK   74  A    between atoms: _184  and  _186
REMARK   75  A    between atoms: _186  and  _187
REMARK   76  A    between atoms: _186  and  _189
REMARK   77  A    between atoms: _189  and  _190
REMARK   78  A    between atoms: _195  and  _196
REMARK   79  A    between atoms: _198  and  _200
REMARK   80  A    between atoms: _200  and  _201
REMARK   81  A    between atoms: _200  and  _203
REMARK   82  A    between atoms: _203  and  _204
REMARK   83  A    between atoms: _206  and  _208
REMARK   84  A    between atoms: _208  and  _209
REMARK   85  A    between atoms: _208  and  _211
REMARK   86  A    between atoms: _211  and  _212
REMARK   87  A    between atoms: _212  and  _213
REMARK   88  A    between atoms: _216  and  _218
REMARK   89  A    between atoms: _218  and  _219
REMARK   90  A    between atoms: _218  and  _221
REMARK   91  A    between atoms: _221  and  _222
REMARK   92  A    between atoms: _227  and  _228
REMARK   93  A    between atoms: _230  and  _232
REMARK   94  A    between atoms: _232  and  _233
REMARK   95  A    between atoms: _236  and  _238
REMARK   96  A    between atoms: _238  and  _239
REMARK   97  A    between atoms: _238  and  _241
REMARK   98  A    between atoms: _241  and  _242
REMARK   99  A    between atoms: _246  and  _247
REMARK  100  A    between atoms: _252  and  _254
REMARK  101  A    between atoms: _254  and  _255
REMARK  102  A    between atoms: _254  and  _257
REMARK  103  A    between atoms: _257  and  _258
REMARK  104  A    between atoms: _261  and  _263
REMARK  105  A    between atoms: _263  and  _264
REMARK  106  A    between atoms: _263  and  _266
REMARK  107  A    between atoms: _266  and  _267
REMARK  108  A    between atoms: _267  and  _268
REMARK  109  A    between atoms: _273  and  _275
REMARK  110  A    between atoms: _275  and  _276
REMARK  111  A    between atoms: _275  and  _278
REMARK  112  A    between atoms: _278  and  _279
REMARK  113  A    between atoms: _282  and  _284
REMARK  114  A    between atoms: _284  and  _285
REMARK  115  A    between atoms: _284  and  _287
REMARK  116  A    between atoms: _287  and  _288
REMARK  117  A    between atoms: _294  and  _296
REMARK  118  A    between atoms: _296  and  _297
REMARK  119  A    between atoms: _299  and  _301
REMARK  120  A    between atoms: _301  and  _302
REMARK  121  A    between atoms: _301  and  _304
REMARK  122  A    between atoms: _304  and  _305
REMARK  123  A    between atoms: _308  and  _310
REMARK  124  A    between atoms: _310  and  _311
REMARK  125  A    between atoms: _314  and  _316
REMARK  126  A    between atoms: _316  and  _317
REMARK  127  A    between atoms: _316  and  _319
REMARK  128  A    between atoms: _319  and  _320
REMARK  129  A    between atoms: _330  and  _332
REMARK  130  A    between atoms: _332  and  _333
REMARK  131  A    between atoms: _332  and  _335
REMARK  132  A    between atoms: _335  and  _336
REMARK  133  A    between atoms: _338  and  _340
REMARK  134  A    between atoms: _340  and  _341
REMARK  135  A    between atoms: _340  and  _343
REMARK  136  A    between atoms: _343  and  _344
REMARK  137  A    between atoms: _349  and  _350
REMARK  138  A    between atoms: _352  and  _354
REMARK  139  A    between atoms: _354  and  _355
REMARK  140  A    between atoms: _354  and  _357
REMARK  141  A    between atoms: _357  and  _358
REMARK  142  A    between atoms: _363  and  _364
REMARK  143  A    between atoms: _366  and  _368
REMARK  144  A    between atoms: _368  and  _369
REMARK  145  A    between atoms: _368  and  _371
REMARK  146  A    between atoms: _371  and  _372
REMARK  147  A    between atoms: _375  and  _377
REMARK  148  A    between atoms: _377  and  _378
REMARK  149  A    between atoms: _380  and  _382
REMARK  150  A    between atoms: _382  and  _383
REMARK  151  A    between atoms: _382  and  _385
REMARK  152  A    between atoms: _385  and  _386
REMARK  153  A    between atoms: _391  and  _392
REMARK  154  A    between atoms: _394  and  _396
REMARK  155  A    between atoms: _396  and  _397
REMARK  156  A    between atoms: _396  and  _399
REMARK  157  A    between atoms: _399  and  _400
REMARK  158  A    between atoms: _403  and  _405
REMARK  159  A    between atoms: _405  and  _406
REMARK  160  A    between atoms: _405  and  _408
REMARK  161  A    between atoms: _408  and  _409
REMARK  162  A    between atoms: _409  and  _410
REMARK  163  A    between atoms: _410  and  _411
REMARK  164  A    between atoms: _420  and  _422
REMARK  165  A    between atoms: _422  and  _423
REMARK  166  A    between atoms: _422  and  _425
REMARK  167  A    between atoms: _425  and  _426
REMARK  168  A    between atoms: _429  and  _431
REMARK  169  A    between atoms: _431  and  _432
REMARK  170  A    between atoms: _431  and  _434
REMARK  171  A    between atoms: _434  and  _435
REMARK  172  A    between atoms: _438  and  _440
REMARK  173  A    between atoms: _440  and  _441
REMARK  174  A    between atoms: _440  and  _443
REMARK  175  A    between atoms: _443  and  _444
REMARK  176  A    between atoms: _447  and  _449
REMARK  177  A    between atoms: _449  and  _450
REMARK  178  A    between atoms: _449  and  _452
REMARK  179  A    between atoms: _452  and  _453
REMARK  180  A    between atoms: _456  and  _458
REMARK  181  A    between atoms: _458  and  _459
REMARK  182  A    between atoms: _458  and  _461
REMARK  183  A    between atoms: _461  and  _462
REMARK  184  A    between atoms: _462  and  _463
REMARK  185  A    between atoms: _463  and  _464
REMARK  186  A    between atoms: _473  and  _475
REMARK  187  A    between atoms: _475  and  _476
REMARK  188  A    between atoms: _475  and  _478
REMARK  189  A    between atoms: _481  and  _483
REMARK  190  A    between atoms: _483  and  _484
REMARK  191  A    between atoms: _483  and  _486
REMARK  192  A    between atoms: _486  and  _487
REMARK  193  A    between atoms: _492  and  _493
REMARK  194  A    between atoms: _495  and  _497
REMARK  195  A    between atoms: _497  and  _498
REMARK  196  A    between atoms: _497  and  _500
REMARK  197  A    between atoms: _500  and  _501
REMARK  198  A    between atoms: _503  and  _505
REMARK  199  A    between atoms: _505  and  _506
REMARK  200  A    between atoms: _505  and  _508
REMARK  201  A    between atoms: _508  and  _509
REMARK  202  A    between atoms: _514  and  _516
REMARK  203  A    between atoms: _516  and  _517
REMARK  204  A    between atoms: _516  and  _519
REMARK  205  A    between atoms: _519  and  _520
REMARK  206  A    between atoms: _522  and  _524
REMARK  207  A    between atoms: _524  and  _525
REMARK  208  A    between atoms: _524  and  _527
REMARK  209  A    between atoms: _527  and  _528
REMARK  210  A    between atoms: _528  and  _529
REMARK  211  A    between atoms: _532  and  _534
REMARK  212  A    between atoms: _534  and  _535
REMARK  213  A    between atoms: _534  and  _537
REMARK  214  A    between atoms: _537  and  _538
REMARK  215  A    between atoms: _543  and  _544
REMARK  216  A    between atoms: _546  and  _548
REMARK  217  A    between atoms: _548  and  _549
REMARK  218  A    between atoms: _552  and  _554
REMARK  219  A    between atoms: _554  and  _555
REMARK  220  A    between atoms: _554  and  _557
REMARK  221  A    between atoms: _557  and  _558
REMARK  222  A    between atoms: _562  and  _563
REMARK  223  A    between atoms: _568  and  _570
REMARK  224  A    between atoms: _570  and  _571
REMARK  225  A    between atoms: _570  and  _573
REMARK  226  A    between atoms: _573  and  _574
REMARK  227  A    between atoms: _577  and  _579
REMARK  228  A    between atoms: _579  and  _580
REMARK  229  A    between atoms: _579  and  _582
REMARK  230  A    between atoms: _582  and  _583
REMARK  231  A    between atoms: _583  and  _584
REMARK  232  A    between atoms: _589  and  _591
REMARK  233  A    between atoms: _591  and  _592
REMARK  234  A    between atoms: _591  and  _594
REMARK  235  A    between atoms: _594  and  _595
REMARK  236  A    between atoms: _598  and  _600
REMARK  237  A    between atoms: _600  and  _601
REMARK  238  A    between atoms: _600  and  _603
REMARK  239  A    between atoms: _603  and  _604
REMARK  240  A    between atoms: _607  and  _609
REMARK  241  A    between atoms: _609  and  _610
REMARK  242  A    between atoms: _609  and  _612
REMARK  243  A    between atoms: _612  and  _613
REMARK                            x       y       z     vdW  Elec       q    Type
REMARK                         _______ _______ _______ _____ _____    ______ ____
ROOT
ATOM      1  O   HOH     1      18.288  23.394  17.370  0.00  0.00    +0.000 OA
ENDROOT
TORSDOF 0
REMARK  Name = ../refined-set-2016/4f5y/4f5y_pocket.pdb
REMARK  243 active torsions:
REMARK  status: ('A' for Active; 'I' for Inactive)
REMARK    1  A    between atoms: _1  and  _3
REMARK    2  A    between atoms: _3  and  _4
REMARK    3  A    between atoms: _6  and  _8
REMARK    4  A    between atoms: _8  and  _9
REMARK    5  A    between atoms: _8  and  _11
REMARK    6  A    between atoms: _11  and  _12
REMARK    7  A    between atoms: _15  and  _17
REMARK    8  A    between atoms: _17  and  _18
REMARK    9  A    between atoms: _21  and  _23
REMARK   10  A    between atoms: _23  and  _24
REMARK   11  A    between atoms: _23  and  _26
REMARK   12  A    between atoms: _26  and  _27
REMARK   13  A    between atoms: _37  and  _39
REMARK   14  A    between atoms: _39  and  _40
REMARK   15  A    between atoms: _39  and  _42
REMARK   16  A    between atoms: _42  and  _43
REMARK   17  A    between atoms: _45  and  _47
REMARK   18  A    between atoms: _47  and  _48
REMARK   19  A    between atoms: _47  and  _50
REMARK   20  A    between atoms: _50  and  _51
REMARK   21  A    between atoms: _56  and  _57
REMARK   22  A    between atoms: _59  and  _61
REMARK   23  A    between atoms: _61  and  _62
REMARK   24  A    between atoms: _61  and  _64
REMARK   25  A    between atoms: _64  and  _65
REMARK   26  A    between atoms: _70  and  _71
REMARK   27  A    between atoms: _73  and  _75
REMARK   28  A    between atoms: _75  and  _76
REMARK   29  A    between atoms: _75  and  _78
REMARK   30  A    between atoms: _78  and  _79
REMARK   31  A    between atoms: _82  and  _84
REMARK   32  A    between atoms: _84  and  _85
REMARK   33  A    between atoms: _87  and  _89
REMARK   34  A    between atoms: _89  and  _90
REMARK   35  A    between atoms: _89  and  _92
REMARK   36  A    between atoms: _92  and  _93
REMARK   37  A    between atoms: _98  and  _99
REMARK   38  A    between atoms: _101  and  _103
REMARK   39  A    between atoms: _103  and  _104
REMARK   40  A    between atoms: _103  and  _106
REMARK   41  A    between atoms: _106  and  _107
REMARK   42  A    between atoms: _110  and  _112
REMARK   43  A    between atoms: _112  and  _113
REMARK   44  A    between atoms: _112  and  _115
REMARK   45  A    between atoms: _115  and  _116
REMARK   46  A    between atoms: _119  and  _121
REMARK   47  A    between atoms: _121  and  _122
REMARK   48  A    between atoms: _121  and  _124
REMARK   49  A    between atoms: _124  and  _125
REMARK   50  A    between atoms: _128  and  _130
REMARK   51  A    between atoms: _130  and  _131
REMARK   52  A    between atoms: _130  and  _133
REMARK   53  A    between atoms: _133  and  _134
REMARK   54  A    between atoms: _137  and  _139
REMARK   55  A    between atoms: _139  and  _140
REMARK   56  A    between atoms: _139  and  _142
REMARK   57  A    between atoms: _142  and  _143
REMARK   58  A    between atoms: _143  and  _144
REMARK   59  A    between atoms: _144  and  _145
REMARK   60  A    between atoms: _145  and  _146
REMARK   61  A    between atoms: _150  and  _152
REMARK   62  A    between atoms: _152  and  _153
REMARK   63  A    between atoms: _152  and  _155
REMARK   64  A    between atoms: _155  and  _156
REMARK   65  A    between atoms: _159  and  _161
REMARK   66  A    between atoms: _161  and  _162
REMARK   67  A    between atoms: _161  and  _164
REMARK   68  A    between atoms: _164  and  _165
REMARK   69  A    between atoms: _165  and  _166
REMARK   70  A    between atoms: _166  and  _167
REMARK   71  A    between atoms: _176  and  _178
REMARK   72  A    between atoms: _178  and  _179
REMARK   73  A    between atoms: _178  and  _181
REMARK   74  A    between atoms: _184  and  _186
REMARK   75  A    between atoms: _186  and  _187
REMARK   76  A    between atoms: _186  and  _189
REMARK   77  A    between atoms: _189  and  _190
REMARK   78  A    between atoms: _195  and  _196
REMARK   79  A    between atoms: _198  and  _200
REMARK   80  A    between atoms: _200  and  _201
REMARK   81  A    between atoms: _200  and  _203
REMARK   82  A    between atoms: _203  and  _204
REMARK   83  A    between atoms: _206  and  _208
REMARK   84  A    between atoms: _208  and  _209
REMARK   85  A    between atoms: _208  and  _211
REMARK   86  A    between atoms: _211  and  _212
REMARK   87  A    between atoms: _212  and  _213
REMARK   88  A    between atoms: _216  and  _218
REMARK   89  A    between atoms: _218  and  _219
REMARK   90  A    between atoms: _218  and  _221
REMARK   91  A    between atoms: _221  and  _222
REMARK   92  A    between atoms: _227  and  _228
REMARK   93  A    between atoms: _230  and  _232
REMARK   94  A    between atoms: _232  and  _233
REMARK   95  A    between atoms: _236  and  _238
REMARK   96  A    between atoms: _238  and  _239
REMARK   97  A    between atoms: _238  and  _241
REMARK   98  A    between atoms: _241  and  _242
REMARK   99  A    between atoms: _246  and  _247
REMARK  100  A    between atoms: _252  and  _254
REMARK  101  A    between atoms: _254  and  _255
REMARK  102  A    between atoms: _254  and  _257
REMARK  103  A    between atoms: _257  and  _258
REMARK  104  A    between atoms: _261  and  _263
REMARK  105  A    between atoms: _263  and  _264
REMARK  106  A    between atoms: _263  and  _266
REMARK  107  A    between atoms: _266  and  _267
REMARK  108  A    between atoms: _267  and  _268
REMARK  109  A    between atoms: _273  and  _275
REMARK  110  A    between atoms: _275  and  _276
REMARK  111  A    between atoms: _275  and  _278
REMARK  112  A    between atoms: _278  and  _279
REMARK  113  A    between atoms: _282  and  _284
REMARK  114  A    between atoms: _284  and  _285
REMARK  115  A    between atoms: _284  and  _287
REMARK  116  A    between atoms: _287  and  _288
REMARK  117  A    between atoms: _294  and  _296
REMARK  118  A    between atoms: _296  and  _297
REMARK  119  A    between atoms: _299  and  _301
REMARK  120  A    between atoms: _301  and  _302
REMARK  121  A    between atoms: _301  and  _304
REMARK  122  A    between atoms: _304  and  _305
REMARK  123  A    between atoms: _308  and  _310
REMARK  124  A    between atoms: _310  and  _311
REMARK  125  A    between atoms: _314  and  _316
REMARK  126  A    between atoms: _316  and  _317
REMARK  127  A    between atoms: _316  and  _319
REMARK  128  A    between atoms: _319  and  _320
REMARK  129  A    between atoms: _330  and  _332
REMARK  130  A    between atoms: _332  and  _333
REMARK  131  A    between atoms: _332  and  _335
REMARK  132  A    between atoms: _335  and  _336
REMARK  133  A    between atoms: _338  and  _340
REMARK  134  A    between atoms: _340  and  _341
REMARK  135  A    between atoms: _340  and  _343
REMARK  136  A    between atoms: _343  and  _344
REMARK  137  A    between atoms: _349  and  _350
REMARK  138  A    between atoms: _352  and  _354
REMARK  139  A    between atoms: _354  and  _355
REMARK  140  A    between atoms: _354  and  _357
REMARK  141  A    between atoms: _357  and  _358
REMARK  142  A    between atoms: _363  and  _364
REMARK  143  A    between atoms: _366  and  _368
REMARK  144  A    between atoms: _368  and  _369
REMARK  145  A    between atoms: _368  and  _371
REMARK  146  A    between atoms: _371  and  _372
REMARK  147  A    between atoms: _375  and  _377
REMARK  148  A    between atoms: _377  and  _378
REMARK  149  A    between atoms: _380  and  _382
REMARK  150  A    between atoms: _382  and  _383
REMARK  151  A    between atoms: _382  and  _385
REMARK  152  A    between atoms: _385  and  _386
REMARK  153  A    between atoms: _391  and  _392
REMARK  154  A    between atoms: _394  and  _396
REMARK  155  A    between atoms: _396  and  _397
REMARK  156  A    between atoms: _396  and  _399
REMARK  157  A    between atoms: _399  and  _400
REMARK  158  A    between atoms: _403  and  _405
REMARK  159  A    between atoms: _405  and  _406
REMARK  160  A    between atoms: _405  and  _408
REMARK  161  A    between atoms: _408  and  _409
REMARK  162  A    between atoms: _409  and  _410
REMARK  163  A    between atoms: _410  and  _411
REMARK  164  A    between atoms: _420  and  _422
REMARK  165  A    between atoms: _422  and  _423
REMARK  166  A    between atoms: _422  and  _425
REMARK  167  A    between atoms: _425  and  _426
REMARK  168  A    between atoms: _429  and  _431
REMARK  169  A    between atoms: _431  and  _432
REMARK  170  A    between atoms: _431  and  _434
REMARK  171  A    between atoms: _434  and  _435
REMARK  172  A    between atoms: _438  and  _440
REMARK  173  A    between atoms: _440  and  _441
REMARK  174  A    between atoms: _440  and  _443
REMARK  175  A    between atoms: _443  and  _444
REMARK  176  A    between atoms: _447  and  _449
REMARK  177  A    between atoms: _449  and  _450
REMARK  178  A    between atoms: _449  and  _452
REMARK  179  A    between atoms: _452  and  _453
REMARK  180  A    between atoms: _456  and  _458
REMARK  181  A    between atoms: _458  and  _459
REMARK  182  A    between atoms: _458  and  _461
REMARK  183  A    between atoms: _461  and  _462
REMARK  184  A    between atoms: _462  and  _463
REMARK  185  A    between atoms: _463  and  _464
REMARK  186  A    between atoms: _473  and  _475
REMARK  187  A    between atoms: _475  and  _476
REMARK  188  A    between atoms: _475  and  _478
REMARK  189  A    between atoms: _481  and  _483
REMARK  190  A    between atoms: _483  and  _484
REMARK  191  A    between atoms: _483  and  _486
REMARK  192  A    between atoms: _486  and  _487
REMARK  193  A    between atoms: _492  and  _493
REMARK  194  A    between atoms: _495  and  _497
REMARK  195  A    between atoms: _497  and  _498
REMARK  196  A    between atoms: _497  and  _500
REMARK  197  A    between atoms: _500  and  _501
REMARK  198  A    between atoms: _503  and  _505
REMARK  199  A    between atoms: _505  and  _506
REMARK  200  A    between atoms: _505  and  _508
REMARK  201  A    between atoms: _508  and  _509
REMARK  202  A    between atoms: _514  and  _516
REMARK  203  A    between atoms: _516  and  _517
REMARK  204  A    between atoms: _516  and  _519
REMARK  205  A    between atoms: _519  and  _520
REMARK  206  A    between atoms: _522  and  _524
REMARK  207  A    between atoms: _524  and  _525
REMARK  208  A    between atoms: _524  and  _527
REMARK  209  A    between atoms: _527  and  _528
REMARK  210  A    between atoms: _528  and  _529
REMARK  211  A    between atoms: _532  and  _534
REMARK  212  A    between atoms: _534  and  _535
REMARK  213  A    between atoms: _534  and  _537
REMARK  214  A    between atoms: _537  and  _538
REMARK  215  A    between atoms: _543  and  _544
REMARK  216  A    between atoms: _546  and  _548
REMARK  217  A    between atoms: _548  and  _549
REMARK  218  A    between atoms: _552  and  _554
REMARK  219  A    between atoms: _554  and  _555
REMARK  220  A    between atoms: _554  and  _557
REMARK  221  A    between atoms: _557  and  _558
REMARK  222  A    between atoms: _562  and  _563
REMARK  223  A    between atoms: _568  and  _570
REMARK  224  A    between atoms: _570  and  _571
REMARK  225  A    between atoms: _570  and  _573
REMARK  226  A    between atoms: _573  and  _574
REMARK  227  A    between atoms: _577  and  _579
REMARK  228  A    between atoms: _579  and  _580
REMARK  229  A    between atoms: _579  and  _582
REMARK  230  A    between atoms: _582  and  _583
REMARK  231  A    between atoms: _583  and  _584
REMARK  232  A    between atoms: _589  and  _591
REMARK  233  A    between atoms: _591  and  _592
REMARK  234  A    between atoms: _591  and  _594
REMARK  235  A    between atoms: _594  and  _595
REMARK  236  A    between atoms: _598  and  _600
REMARK  237  A    between atoms: _600  and  _601
REMARK  238  A    between atoms: _600  and  _603
REMARK  239  A    between atoms: _603  and  _604
REMARK  240  A    between atoms: _607  and  _609
REMARK  241  A    between atoms: _609  and  _610
REMARK  242  A    between atoms: _609  and  _612
REMARK  243  A    between atoms: _612  and  _613
REMARK                            x       y       z     vdW  Elec       q    Type
REMARK                         _______ _______ _______ _____ _____    ______ ____
ROOT
ATOM      1  O   HOH     1      20.394  16.243  21.023  0.00  0.00    +0.000 OA
ENDROOT
TORSDOF 0
REMARK  Name = ../refined-set-2016/4f5y/4f5y_pocket.pdb
REMARK  243 active torsions:
REMARK  status: ('A' for Active; 'I' for Inactive)
REMARK    1  A    between atoms: _1  and  _3
REMARK    2  A    between atoms: _3  and  _4
REMARK    3  A    between atoms: _6  and  _8
REMARK    4  A    between atoms: _8  and  _9
REMARK    5  A    between atoms: _8  and  _11
REMARK    6  A    between atoms: _11  and  _12
REMARK    7  A    between atoms: _15  and  _17
REMARK    8  A    between atoms: _17  and  _18
REMARK    9  A    between atoms: _21  and  _23
REMARK   10  A    between atoms: _23  and  _24
REMARK   11  A    between atoms: _23  and  _26
REMARK   12  A    between atoms: _26  and  _27
REMARK   13  A    between atoms: _37  and  _39
REMARK   14  A    between atoms: _39  and  _40
REMARK   15  A    between atoms: _39  and  _42
REMARK   16  A    between atoms: _42  and  _43
REMARK   17  A    between atoms: _45  and  _47
REMARK   18  A    between atoms: _47  and  _48
REMARK   19  A    between atoms: _47  and  _50
REMARK   20  A    between atoms: _50  and  _51
REMARK   21  A    between atoms: _56  and  _57
REMARK   22  A    between atoms: _59  and  _61
REMARK   23  A    between atoms: _61  and  _62
REMARK   24  A    between atoms: _61  and  _64
REMARK   25  A    between atoms: _64  and  _65
REMARK   26  A    between atoms: _70  and  _71
REMARK   27  A    between atoms: _73  and  _75
REMARK   28  A    between atoms: _75  and  _76
REMARK   29  A    between atoms: _75  and  _78
REMARK   30  A    between atoms: _78  and  _79
REMARK   31  A    between atoms: _82  and  _84
REMARK   32  A    between atoms: _84  and  _85
REMARK   33  A    between atoms: _87  and  _89
REMARK   34  A    between atoms: _89  and  _90
REMARK   35  A    between atoms: _89  and  _92
REMARK   36  A    between atoms: _92  and  _93
REMARK   37  A    between atoms: _98  and  _99
REMARK   38  A    between atoms: _101  and  _103
REMARK   39  A    between atoms: _103  and  _104
REMARK   40  A    between atoms: _103  and  _106
REMARK   41  A    between atoms: _106  and  _107
REMARK   42  A    between atoms: _110  and  _112
REMARK   43  A    between atoms: _112  and  _113
REMARK   44  A    between atoms: _112  and  _115
REMARK   45  A    between atoms: _115  and  _116
REMARK   46  A    between atoms: _119  and  _121
REMARK   47  A    between atoms: _121  and  _122
REMARK   48  A    between atoms: _121  and  _124
REMARK   49  A    between atoms: _124  and  _125
REMARK   50  A    between atoms: _128  and  _130
REMARK   51  A    between atoms: _130  and  _131
REMARK   52  A    between atoms: _130  and  _133
REMARK   53  A    between atoms: _133  and  _134
REMARK   54  A    between atoms: _137  and  _139
REMARK   55  A    between atoms: _139  and  _140
REMARK   56  A    between atoms: _139  and  _142
REMARK   57  A    between atoms: _142  and  _143
REMARK   58  A    between atoms: _143  and  _144
REMARK   59  A    between atoms: _144  and  _145
REMARK   60  A    between atoms: _145  and  _146
REMARK   61  A    between atoms: _150  and  _152
REMARK   62  A    between atoms: _152  and  _153
REMARK   63  A    between atoms: _152  and  _155
REMARK   64  A    between atoms: _155  and  _156
REMARK   65  A    between atoms: _159  and  _161
REMARK   66  A    between atoms: _161  and  _162
REMARK   67  A    between atoms: _161  and  _164
REMARK   68  A    between atoms: _164  and  _165
REMARK   69  A    between atoms: _165  and  _166
REMARK   70  A    between atoms: _166  and  _167
REMARK   71  A    between atoms: _176  and  _178
REMARK   72  A    between atoms: _178  and  _179
REMARK   73  A    between atoms: _178  and  _181
REMARK   74  A    between atoms: _184  and  _186
REMARK   75  A    between atoms: _186  and  _187
REMARK   76  A    between atoms: _186  and  _189
REMARK   77  A    between atoms: _189  and  _190
REMARK   78  A    between atoms: _195  and  _196
REMARK   79  A    between atoms: _198  and  _200
REMARK   80  A    between atoms: _200  and  _201
REMARK   81  A    between atoms: _200  and  _203
REMARK   82  A    between atoms: _203  and  _204
REMARK   83  A    between atoms: _206  and  _208
REMARK   84  A    between atoms: _208  and  _209
REMARK   85  A    between atoms: _208  and  _211
REMARK   86  A    between atoms: _211  and  _212
REMARK   87  A    between atoms: _212  and  _213
REMARK   88  A    between atoms: _216  and  _218
REMARK   89  A    between atoms: _218  and  _219
REMARK   90  A    between atoms: _218  and  _221
REMARK   91  A    between atoms: _221  and  _222
REMARK   92  A    between atoms: _227  and  _228
REMARK   93  A    between atoms: _230  and  _232
REMARK   94  A    between atoms: _232  and  _233
REMARK   95  A    between atoms: _236  and  _238
REMARK   96  A    between atoms: _238  and  _239
REMARK   97  A    between atoms: _238  and  _241
REMARK   98  A    between atoms: _241  and  _242
REMARK   99  A    between atoms: _246  and  _247
REMARK  100  A    between atoms: _252  and  _254
REMARK  101  A    between atoms: _254  and  _255
REMARK  102  A    between atoms: _254  and  _257
REMARK  103  A    between atoms: _257  and  _258
REMARK  104  A    between atoms: _261  and  _263
REMARK  105  A    between atoms: _263  and  _264
REMARK  106  A    between atoms: _263  and  _266
REMARK  107  A    between atoms: _266  and  _267
REMARK  108  A    between atoms: _267  and  _268
REMARK  109  A    between atoms: _273  and  _275
REMARK  110  A    between atoms: _275  and  _276
REMARK  111  A    between atoms: _275  and  _278
REMARK  112  A    between atoms: _278  and  _279
REMARK  113  A    between atoms: _282  and  _284
REMARK  114  A    between atoms: _284  and  _285
REMARK  115  A    between atoms: _284  and  _287
REMARK  116  A    between atoms: _287  and  _288
REMARK  117  A    between atoms: _294  and  _296
REMARK  118  A    between atoms: _296  and  _297
REMARK  119  A    between atoms: _299  and  _301
REMARK  120  A    between atoms: _301  and  _302
REMARK  121  A    between atoms: _301  and  _304
REMARK  122  A    between atoms: _304  and  _305
REMARK  123  A    between atoms: _308  and  _310
REMARK  124  A    between atoms: _310  and  _311
REMARK  125  A    between atoms: _314  and  _316
REMARK  126  A    between atoms: _316  and  _317
REMARK  127  A    between atoms: _316  and  _319
REMARK  128  A    between atoms: _319  and  _320
REMARK  129  A    between atoms: _330  and  _332
REMARK  130  A    between atoms: _332  and  _333
REMARK  131  A    between atoms: _332  and  _335
REMARK  132  A    between atoms: _335  and  _336
REMARK  133  A    between atoms: _338  and  _340
REMARK  134  A    between atoms: _340  and  _341
REMARK  135  A    between atoms: _340  and  _343
REMARK  136  A    between atoms: _343  and  _344
REMARK  137  A    between atoms: _349  and  _350
REMARK  138  A    between atoms: _352  and  _354
REMARK  139  A    between atoms: _354  and  _355
REMARK  140  A    between atoms: _354  and  _357
REMARK  141  A    between atoms: _357  and  _358
REMARK  142  A    between atoms: _363  and  _364
REMARK  143  A    between atoms: _366  and  _368
REMARK  144  A    between atoms: _368  and  _369
REMARK  145  A    between atoms: _368  and  _371
REMARK  146  A    between atoms: _371  and  _372
REMARK  147  A    between atoms: _375  and  _377
REMARK  148  A    between atoms: _377  and  _378
REMARK  149  A    between atoms: _380  and  _382
REMARK  150  A    between atoms: _382  and  _383
REMARK  151  A    between atoms: _382  and  _385
REMARK  152  A    between atoms: _385  and  _386
REMARK  153  A    between atoms: _391  and  _392
REMARK  154  A    between atoms: _394  and  _396
REMARK  155  A    between atoms: _396  and  _397
REMARK  156  A    between atoms: _396  and  _399
REMARK  157  A    between atoms: _399  and  _400
REMARK  158  A    between atoms: _403  and  _405
REMARK  159  A    between atoms: _405  and  _406
REMARK  160  A    between atoms: _405  and  _408
REMARK  161  A    between atoms: _408  and  _409
REMARK  162  A    between atoms: _409  and  _410
REMARK  163  A    between atoms: _410  and  _411
REMARK  164  A    between atoms: _420  and  _422
REMARK  165  A    between atoms: _422  and  _423
REMARK  166  A    between atoms: _422  and  _425
REMARK  167  A    between atoms: _425  and  _426
REMARK  168  A    between atoms: _429  and  _431
REMARK  169  A    between atoms: _431  and  _432
REMARK  170  A    between atoms: _431  and  _434
REMARK  171  A    between atoms: _434  and  _435
REMARK  172  A    between atoms: _438  and  _440
REMARK  173  A    between atoms: _440  and  _441
REMARK  174  A    between atoms: _440  and  _443
REMARK  175  A    between atoms: _443  and  _444
REMARK  176  A    between atoms: _447  and  _449
REMARK  177  A    between atoms: _449  and  _450
REMARK  178  A    between atoms: _449  and  _452
REMARK  179  A    between atoms: _452  and  _453
REMARK  180  A    between atoms: _456  and  _458
REMARK  181  A    between atoms: _458  and  _459
REMARK  182  A    between atoms: _458  and  _461
REMARK  183  A    between atoms: _461  and  _462
REMARK  184  A    between atoms: _462  and  _463
REMARK  185  A    between atoms: _463  and  _464
REMARK  186  A    between atoms: _473  and  _475
REMARK  187  A    between atoms: _475  and  _476
REMARK  188  A    between atoms: _475  and  _478
REMARK  189  A    between atoms: _481  and  _483
REMARK  190  A    between atoms: _483  and  _484
REMARK  191  A    between atoms: _483  and  _486
REMARK  192  A    between atoms: _486  and  _487
REMARK  193  A    between atoms: _492  and  _493
REMARK  194  A    between atoms: _495  and  _497
REMARK  195  A    between atoms: _497  and  _498
REMARK  196  A    between atoms: _497  and  _500
REMARK  197  A    between atoms: _500  and  _501
REMARK  198  A    between atoms: _503  and  _505
REMARK  199  A    between atoms: _505  and  _506
REMARK  200  A    between atoms: _505  and  _508
REMARK  201  A    between atoms: _508  and  _509
REMARK  202  A    between atoms: _514  and  _516
REMARK  203  A    between atoms: _516  and  _517
REMARK  204  A    between atoms: _516  and  _519
REMARK  205  A    between atoms: _519  and  _520
REMARK  206  A    between atoms: _522  and  _524
REMARK  207  A    between atoms: _524  and  _525
REMARK  208  A    between atoms: _524  and  _527
REMARK  209  A    between atoms: _527  and  _528
REMARK  210  A    between atoms: _528  and  _529
REMARK  211  A    between atoms: _532  and  _534
REMARK  212  A    between atoms: _534  and  _535
REMARK  213  A    between atoms: _534  and  _537
REMARK  214  A    between atoms: _537  and  _538
REMARK  215  A    between atoms: _543  and  _544
REMARK  216  A    between atoms: _546  and  _548
REMARK  217  A    between atoms: _548  and  _549
REMARK  218  A    between atoms: _552  and  _554
REMARK  219  A    between atoms: _554  and  _555
REMARK  220  A    between atoms: _554  and  _557
REMARK  221  A    between atoms: _557  and  _558
REMARK  222  A    between atoms: _562  and  _563
REMARK  223  A    between atoms: _568  and  _570
REMARK  224  A    between atoms: _570  and  _571
REMARK  225  A    between atoms: _570  and  _573
REMARK  226  A    between atoms: _573  and  _574
REMARK  227  A    between atoms: _577  and  _579
REMARK  228  A    between atoms: _579  and  _580
REMARK  229  A    between atoms: _579  and  _582
REMARK  230  A    between atoms: _582  and  _583
REMARK  231  A    between atoms: _583  and  _584
REMARK  232  A    between atoms: _589  and  _591
REMARK  233  A    between atoms: _591  and  _592
REMARK  234  A    between atoms: _591  and  _594
REMARK  235  A    between atoms: _594  and  _595
REMARK  236  A    between atoms: _598  and  _600
REMARK  237  A    between atoms: _600  and  _601
REMARK  238  A    between atoms: _600  and  _603
REMARK  239  A    between atoms: _603  and  _604
REMARK  240  A    between atoms: _607  and  _609
REMARK  241  A    between atoms: _609  and  _610
REMARK  242  A    between atoms: _609  and  _612
REMARK  243  A    between atoms: _612  and  _613
REMARK                            x       y       z     vdW  Elec       q    Type
REMARK                         _______ _______ _______ _____ _____    ______ ____
ROOT
ATOM      1  O   HOH     1      13.222   8.737  13.601  0.00  0.00    +0.000 OA
ENDROOT
TORSDOF 0
REMARK  Name = ../refined-set-2016/4f5y/4f5y_pocket.pdb
REMARK  243 active torsions:
REMARK  status: ('A' for Active; 'I' for Inactive)
REMARK    1  A    between atoms: _1  and  _3
REMARK    2  A    between atoms: _3  and  _4
REMARK    3  A    between atoms: _6  and  _8
REMARK    4  A    between atoms: _8  and  _9
REMARK    5  A    between atoms: _8  and  _11
REMARK    6  A    between atoms: _11  and  _12
REMARK    7  A    between atoms: _15  and  _17
REMARK    8  A    between atoms: _17  and  _18
REMARK    9  A    between atoms: _21  and  _23
REMARK   10  A    between atoms: _23  and  _24
REMARK   11  A    between atoms: _23  and  _26
REMARK   12  A    between atoms: _26  and  _27
REMARK   13  A    between atoms: _37  and  _39
REMARK   14  A    between atoms: _39  and  _40
REMARK   15  A    between atoms: _39  and  _42
REMARK   16  A    between atoms: _42  and  _43
REMARK   17  A    between atoms: _45  and  _47
REMARK   18  A    between atoms: _47  and  _48
REMARK   19  A    between atoms: _47  and  _50
REMARK   20  A    between atoms: _50  and  _51
REMARK   21  A    between atoms: _56  and  _57
REMARK   22  A    between atoms: _59  and  _61
REMARK   23  A    between atoms: _61  and  _62
REMARK   24  A    between atoms: _61  and  _64
REMARK   25  A    between atoms: _64  and  _65
REMARK   26  A    between atoms: _70  and  _71
REMARK   27  A    between atoms: _73  and  _75
REMARK   28  A    between atoms: _75  and  _76
REMARK   29  A    between atoms: _75  and  _78
REMARK   30  A    between atoms: _78  and  _79
REMARK   31  A    between atoms: _82  and  _84
REMARK   32  A    between atoms: _84  and  _85
REMARK   33  A    between atoms: _87  and  _89
REMARK   34  A    between atoms: _89  and  _90
REMARK   35  A    between atoms: _89  and  _92
REMARK   36  A    between atoms: _92  and  _93
REMARK   37  A    between atoms: _98  and  _99
REMARK   38  A    between atoms: _101  and  _103
REMARK   39  A    between atoms: _103  and  _104
REMARK   40  A    between atoms: _103  and  _106
REMARK   41  A    between atoms: _106  and  _107
REMARK   42  A    between atoms: _110  and  _112
REMARK   43  A    between atoms: _112  and  _113
REMARK   44  A    between atoms: _112  and  _115
REMARK   45  A    between atoms: _115  and  _116
REMARK   46  A    between atoms: _119  and  _121
REMARK   47  A    between atoms: _121  and  _122
REMARK   48  A    between atoms: _121  and  _124
REMARK   49  A    between atoms: _124  and  _125
REMARK   50  A    between atoms: _128  and  _130
REMARK   51  A    between atoms: _130  and  _131
REMARK   52  A    between atoms: _130  and  _133
REMARK   53  A    between atoms: _133  and  _134
REMARK   54  A    between atoms: _137  and  _139
REMARK   55  A    between atoms: _139  and  _140
REMARK   56  A    between atoms: _139  and  _142
REMARK   57  A    between atoms: _142  and  _143
REMARK   58  A    between atoms: _143  and  _144
REMARK   59  A    between atoms: _144  and  _145
REMARK   60  A    between atoms: _145  and  _146
REMARK   61  A    between atoms: _150  and  _152
REMARK   62  A    between atoms: _152  and  _153
REMARK   63  A    between atoms: _152  and  _155
REMARK   64  A    between atoms: _155  and  _156
REMARK   65  A    between atoms: _159  and  _161
REMARK   66  A    between atoms: _161  and  _162
REMARK   67  A    between atoms: _161  and  _164
REMARK   68  A    between atoms: _164  and  _165
REMARK   69  A    between atoms: _165  and  _166
REMARK   70  A    between atoms: _166  and  _167
REMARK   71  A    between atoms: _176  and  _178
REMARK   72  A    between atoms: _178  and  _179
REMARK   73  A    between atoms: _178  and  _181
REMARK   74  A    between atoms: _184  and  _186
REMARK   75  A    between atoms: _186  and  _187
REMARK   76  A    between atoms: _186  and  _189
REMARK   77  A    between atoms: _189  and  _190
REMARK   78  A    between atoms: _195  and  _196
REMARK   79  A    between atoms: _198  and  _200
REMARK   80  A    between atoms: _200  and  _201
REMARK   81  A    between atoms: _200  and  _203
REMARK   82  A    between atoms: _203  and  _204
REMARK   83  A    between atoms: _206  and  _208
REMARK   84  A    between atoms: _208  and  _209
REMARK   85  A    between atoms: _208  and  _211
REMARK   86  A    between atoms: _211  and  _212
REMARK   87  A    between atoms: _212  and  _213
REMARK   88  A    between atoms: _216  and  _218
REMARK   89  A    between atoms: _218  and  _219
REMARK   90  A    between atoms: _218  and  _221
REMARK   91  A    between atoms: _221  and  _222
REMARK   92  A    between atoms: _227  and  _228
REMARK   93  A    between atoms: _230  and  _232
REMARK   94  A    between atoms: _232  and  _233
REMARK   95  A    between atoms: _236  and  _238
REMARK   96  A    between atoms: _238  and  _239
REMARK   97  A    between atoms: _238  and  _241
REMARK   98  A    between atoms: _241  and  _242
REMARK   99  A    between atoms: _246  and  _247
REMARK  100  A    between atoms: _252  and  _254
REMARK  101  A    between atoms: _254  and  _255
REMARK  102  A    between atoms: _254  and  _257
REMARK  103  A    between atoms: _257  and  _258
REMARK  104  A    between atoms: _261  and  _263
REMARK  105  A    between atoms: _263  and  _264
REMARK  106  A    between atoms: _263  and  _266
REMARK  107  A    between atoms: _266  and  _267
REMARK  108  A    between atoms: _267  and  _268
REMARK  109  A    between atoms: _273  and  _275
REMARK  110  A    between atoms: _275  and  _276
REMARK  111  A    between atoms: _275  and  _278
REMARK  112  A    between atoms: _278  and  _279
REMARK  113  A    between atoms: _282  and  _284
REMARK  114  A    between atoms: _284  and  _285
REMARK  115  A    between atoms: _284  and  _287
REMARK  116  A    between atoms: _287  and  _288
REMARK  117  A    between atoms: _294  and  _296
REMARK  118  A    between atoms: _296  and  _297
REMARK  119  A    between atoms: _299  and  _301
REMARK  120  A    between atoms: _301  and  _302
REMARK  121  A    between atoms: _301  and  _304
REMARK  122  A    between atoms: _304  and  _305
REMARK  123  A    between atoms: _308  and  _310
REMARK  124  A    between atoms: _310  and  _311
REMARK  125  A    between atoms: _314  and  _316
REMARK  126  A    between atoms: _316  and  _317
REMARK  127  A    between atoms: _316  and  _319
REMARK  128  A    between atoms: _319  and  _320
REMARK  129  A    between atoms: _330  and  _332
REMARK  130  A    between atoms: _332  and  _333
REMARK  131  A    between atoms: _332  and  _335
REMARK  132  A    between atoms: _335  and  _336
REMARK  133  A    between atoms: _338  and  _340
REMARK  134  A    between atoms: _340  and  _341
REMARK  135  A    between atoms: _340  and  _343
REMARK  136  A    between atoms: _343  and  _344
REMARK  137  A    between atoms: _349  and  _350
REMARK  138  A    between atoms: _352  and  _354
REMARK  139  A    between atoms: _354  and  _355
REMARK  140  A    between atoms: _354  and  _357
REMARK  141  A    between atoms: _357  and  _358
REMARK  142  A    between atoms: _363  and  _364
REMARK  143  A    between atoms: _366  and  _368
REMARK  144  A    between atoms: _368  and  _369
REMARK  145  A    between atoms: _368  and  _371
REMARK  146  A    between atoms: _371  and  _372
REMARK  147  A    between atoms: _375  and  _377
REMARK  148  A    between atoms: _377  and  _378
REMARK  149  A    between atoms: _380  and  _382
REMARK  150  A    between atoms: _382  and  _383
REMARK  151  A    between atoms: _382  and  _385
REMARK  152  A    between atoms: _385  and  _386
REMARK  153  A    between atoms: _391  and  _392
REMARK  154  A    between atoms: _394  and  _396
REMARK  155  A    between atoms: _396  and  _397
REMARK  156  A    between atoms: _396  and  _399
REMARK  157  A    between atoms: _399  and  _400
REMARK  158  A    between atoms: _403  and  _405
REMARK  159  A    between atoms: _405  and  _406
REMARK  160  A    between atoms: _405  and  _408
REMARK  161  A    between atoms: _408  and  _409
REMARK  162  A    between atoms: _409  and  _410
REMARK  163  A    between atoms: _410  and  _411
REMARK  164  A    between atoms: _420  and  _422
REMARK  165  A    between atoms: _422  and  _423
REMARK  166  A    between atoms: _422  and  _425
REMARK  167  A    between atoms: _425  and  _426
REMARK  168  A    between atoms: _429  and  _431
REMARK  169  A    between atoms: _431  and  _432
REMARK  170  A    between atoms: _431  and  _434
REMARK  171  A    between atoms: _434  and  _435
REMARK  172  A    between atoms: _438  and  _440
REMARK  173  A    between atoms: _440  and  _441
REMARK  174  A    between atoms: _440  and  _443
REMARK  175  A    between atoms: _443  and  _444
REMARK  176  A    between atoms: _447  and  _449
REMARK  177  A    between atoms: _449  and  _450
REMARK  178  A    between atoms: _449  and  _452
REMARK  179  A    between atoms: _452  and  _453
REMARK  180  A    between atoms: _456  and  _458
REMARK  181  A    between atoms: _458  and  _459
REMARK  182  A    between atoms: _458  and  _461
REMARK  183  A    between atoms: _461  and  _462
REMARK  184  A    between atoms: _462  and  _463
REMARK  185  A    between atoms: _463  and  _464
REMARK  186  A    between atoms: _473  and  _475
REMARK  187  A    between atoms: _475  and  _476
REMARK  188  A    between atoms: _475  and  _478
REMARK  189  A    between atoms: _481  and  _483
REMARK  190  A    between atoms: _483  and  _484
REMARK  191  A    between atoms: _483  and  _486
REMARK  192  A    between atoms: _486  and  _487
REMARK  193  A    between atoms: _492  and  _493
REMARK  194  A    between atoms: _495  and  _497
REMARK  195  A    between atoms: _497  and  _498
REMARK  196  A    between atoms: _497  and  _500
REMARK  197  A    between atoms: _500  and  _501
REMARK  198  A    between atoms: _503  and  _505
REMARK  199  A    between atoms: _505  and  _506
REMARK  200  A    between atoms: _505  and  _508
REMARK  201  A    between atoms: _508  and  _509
REMARK  202  A    between atoms: _514  and  _516
REMARK  203  A    between atoms: _516  and  _517
REMARK  204  A    between atoms: _516  and  _519
REMARK  205  A    between atoms: _519  and  _520
REMARK  206  A    between atoms: _522  and  _524
REMARK  207  A    between atoms: _524  and  _525
REMARK  208  A    between atoms: _524  and  _527
REMARK  209  A    between atoms: _527  and  _528
REMARK  210  A    between atoms: _528  and  _529
REMARK  211  A    between atoms: _532  and  _534
REMARK  212  A    between atoms: _534  and  _535
REMARK  213  A    between atoms: _534  and  _537
REMARK  214  A    between atoms: _537  and  _538
REMARK  215  A    between atoms: _543  and  _544
REMARK  216  A    between atoms: _546  and  _548
REMARK  217  A    between atoms: _548  and  _549
REMARK  218  A    between atoms: _552  and  _554
REMARK  219  A    between atoms: _554  and  _555
REMARK  220  A    between atoms: _554  and  _557
REMARK  221  A    between atoms: _557  and  _558
REMARK  222  A    between atoms: _562  and  _563
REMARK  223  A    between atoms: _568  and  _570
REMARK  224  A    between atoms: _570  and  _571
REMARK  225  A    between atoms: _570  and  _573
REMARK  226  A    between atoms: _573  and  _574
REMARK  227  A    between atoms: _577  and  _579
REMARK  228  A    between atoms: _579  and  _580
REMARK  229  A    between atoms: _579  and  _582
REMARK  230  A    between atoms: _582  and  _583
REMARK  231  A    between atoms: _583  and  _584
REMARK  232  A    between atoms: _589  and  _591
REMARK  233  A    between atoms: _591  and  _592
REMARK  234  A    between atoms: _591  and  _594
REMARK  235  A    between atoms: _594  and  _595
REMARK  236  A    between atoms: _598  and  _600
REMARK  237  A    between atoms: _600  and  _601
REMARK  238  A    between atoms: _600  and  _603
REMARK  239  A    between atoms: _603  and  _604
REMARK  240  A    between atoms: _607  and  _609
REMARK  241  A    between atoms: _609  and  _610
REMARK  242  A    between atoms: _609  and  _612
REMARK  243  A    between atoms: _612  and  _613
REMARK                            x       y       z     vdW  Elec       q    Type
REMARK                         _______ _______ _______ _____ _____    ______ ____
ROOT
ATOM      1  O   HOH     1      19.141  18.432  24.835  0.00  0.00    +0.000 OA
ENDROOT
TORSDOF 0
REMARK  Name = ../refined-set-2016/4f5y/4f5y_pocket.pdb
REMARK  243 active torsions:
REMARK  status: ('A' for Active; 'I' for Inactive)
REMARK    1  A    between atoms: _1  and  _3
REMARK    2  A    between atoms: _3  and  _4
REMARK    3  A    between atoms: _6  and  _8
REMARK    4  A    between atoms: _8  and  _9
REMARK    5  A    between atoms: _8  and  _11
REMARK    6  A    between atoms: _11  and  _12
REMARK    7  A    between atoms: _15  and  _17
REMARK    8  A    between atoms: _17  and  _18
REMARK    9  A    between atoms: _21  and  _23
REMARK   10  A    between atoms: _23  and  _24
REMARK   11  A    between atoms: _23  and  _26
REMARK   12  A    between atoms: _26  and  _27
REMARK   13  A    between atoms: _37  and  _39
REMARK   14  A    between atoms: _39  and  _40
REMARK   15  A    between atoms: _39  and  _42
REMARK   16  A    between atoms: _42  and  _43
REMARK   17  A    between atoms: _45  and  _47
REMARK   18  A    between atoms: _47  and  _48
REMARK   19  A    between atoms: _47  and  _50
REMARK   20  A    between atoms: _50  and  _51
REMARK   21  A    between atoms: _56  and  _57
REMARK   22  A    between atoms: _59  and  _61
REMARK   23  A    between atoms: _61  and  _62
REMARK   24  A    between atoms: _61  and  _64
REMARK   25  A    between atoms: _64  and  _65
REMARK   26  A    between atoms: _70  and  _71
REMARK   27  A    between atoms: _73  and  _75
REMARK   28  A    between atoms: _75  and  _76
REMARK   29  A    between atoms: _75  and  _78
REMARK   30  A    between atoms: _78  and  _79
REMARK   31  A    between atoms: _82  and  _84
REMARK   32  A    between atoms: _84  and  _85
REMARK   33  A    between atoms: _87  and  _89
REMARK   34  A    between atoms: _89  and  _90
REMARK   35  A    between atoms: _89  and  _92
REMARK   36  A    between atoms: _92  and  _93
REMARK   37  A    between atoms: _98  and  _99
REMARK   38  A    between atoms: _101  and  _103
REMARK   39  A    between atoms: _103  and  _104
REMARK   40  A    between atoms: _103  and  _106
REMARK   41  A    between atoms: _106  and  _107
REMARK   42  A    between atoms: _110  and  _112
REMARK   43  A    between atoms: _112  and  _113
REMARK   44  A    between atoms: _112  and  _115
REMARK   45  A    between atoms: _115  and  _116
REMARK   46  A    between atoms: _119  and  _121
REMARK   47  A    between atoms: _121  and  _122
REMARK   48  A    between atoms: _121  and  _124
REMARK   49  A    between atoms: _124  and  _125
REMARK   50  A    between atoms: _128  and  _130
REMARK   51  A    between atoms: _130  and  _131
REMARK   52  A    between atoms: _130  and  _133
REMARK   53  A    between atoms: _133  and  _134
REMARK   54  A    between atoms: _137  and  _139
REMARK   55  A    between atoms: _139  and  _140
REMARK   56  A    between atoms: _139  and  _142
REMARK   57  A    between atoms: _142  and  _143
REMARK   58  A    between atoms: _143  and  _144
REMARK   59  A    between atoms: _144  and  _145
REMARK   60  A    between atoms: _145  and  _146
REMARK   61  A    between atoms: _150  and  _152
REMARK   62  A    between atoms: _152  and  _153
REMARK   63  A    between atoms: _152  and  _155
REMARK   64  A    between atoms: _155  and  _156
REMARK   65  A    between atoms: _159  and  _161
REMARK   66  A    between atoms: _161  and  _162
REMARK   67  A    between atoms: _161  and  _164
REMARK   68  A    between atoms: _164  and  _165
REMARK   69  A    between atoms: _165  and  _166
REMARK   70  A    between atoms: _166  and  _167
REMARK   71  A    between atoms: _176  and  _178
REMARK   72  A    between atoms: _178  and  _179
REMARK   73  A    between atoms: _178  and  _181
REMARK   74  A    between atoms: _184  and  _186
REMARK   75  A    between atoms: _186  and  _187
REMARK   76  A    between atoms: _186  and  _189
REMARK   77  A    between atoms: _189  and  _190
REMARK   78  A    between atoms: _195  and  _196
REMARK   79  A    between atoms: _198  and  _200
REMARK   80  A    between atoms: _200  and  _201
REMARK   81  A    between atoms: _200  and  _203
REMARK   82  A    between atoms: _203  and  _204
REMARK   83  A    between atoms: _206  and  _208
REMARK   84  A    between atoms: _208  and  _209
REMARK   85  A    between atoms: _208  and  _211
REMARK   86  A    between atoms: _211  and  _212
REMARK   87  A    between atoms: _212  and  _213
REMARK   88  A    between atoms: _216  and  _218
REMARK   89  A    between atoms: _218  and  _219
REMARK   90  A    between atoms: _218  and  _221
REMARK   91  A    between atoms: _221  and  _222
REMARK   92  A    between atoms: _227  and  _228
REMARK   93  A    between atoms: _230  and  _232
REMARK   94  A    between atoms: _232  and  _233
REMARK   95  A    between atoms: _236  and  _238
REMARK   96  A    between atoms: _238  and  _239
REMARK   97  A    between atoms: _238  and  _241
REMARK   98  A    between atoms: _241  and  _242
REMARK   99  A    between atoms: _246  and  _247
REMARK  100  A    between atoms: _252  and  _254
REMARK  101  A    between atoms: _254  and  _255
REMARK  102  A    between atoms: _254  and  _257
REMARK  103  A    between atoms: _257  and  _258
REMARK  104  A    between atoms: _261  and  _263
REMARK  105  A    between atoms: _263  and  _264
REMARK  106  A    between atoms: _263  and  _266
REMARK  107  A    between atoms: _266  and  _267
REMARK  108  A    between atoms: _267  and  _268
REMARK  109  A    between atoms: _273  and  _275
REMARK  110  A    between atoms: _275  and  _276
REMARK  111  A    between atoms: _275  and  _278
REMARK  112  A    between atoms: _278  and  _279
REMARK  113  A    between atoms: _282  and  _284
REMARK  114  A    between atoms: _284  and  _285
REMARK  115  A    between atoms: _284  and  _287
REMARK  116  A    between atoms: _287  and  _288
REMARK  117  A    between atoms: _294  and  _296
REMARK  118  A    between atoms: _296  and  _297
REMARK  119  A    between atoms: _299  and  _301
REMARK  120  A    between atoms: _301  and  _302
REMARK  121  A    between atoms: _301  and  _304
REMARK  122  A    between atoms: _304  and  _305
REMARK  123  A    between atoms: _308  and  _310
REMARK  124  A    between atoms: _310  and  _311
REMARK  125  A    between atoms: _314  and  _316
REMARK  126  A    between atoms: _316  and  _317
REMARK  127  A    between atoms: _316  and  _319
REMARK  128  A    between atoms: _319  and  _320
REMARK  129  A    between atoms: _330  and  _332
REMARK  130  A    between atoms: _332  and  _333
REMARK  131  A    between atoms: _332  and  _335
REMARK  132  A    between atoms: _335  and  _336
REMARK  133  A    between atoms: _338  and  _340
REMARK  134  A    between atoms: _340  and  _341
REMARK  135  A    between atoms: _340  and  _343
REMARK  136  A    between atoms: _343  and  _344
REMARK  137  A    between atoms: _349  and  _350
REMARK  138  A    between atoms: _352  and  _354
REMARK  139  A    between atoms: _354  and  _355
REMARK  140  A    between atoms: _354  and  _357
REMARK  141  A    between atoms: _357  and  _358
REMARK  142  A    between atoms: _363  and  _364
REMARK  143  A    between atoms: _366  and  _368
REMARK  144  A    between atoms: _368  and  _369
REMARK  145  A    between atoms: _368  and  _371
REMARK  146  A    between atoms: _371  and  _372
REMARK  147  A    between atoms: _375  and  _377
REMARK  148  A    between atoms: _377  and  _378
REMARK  149  A    between atoms: _380  and  _382
REMARK  150  A    between atoms: _382  and  _383
REMARK  151  A    between atoms: _382  and  _385
REMARK  152  A    between atoms: _385  and  _386
REMARK  153  A    between atoms: _391  and  _392
REMARK  154  A    between atoms: _394  and  _396
REMARK  155  A    between atoms: _396  and  _397
REMARK  156  A    between atoms: _396  and  _399
REMARK  157  A    between atoms: _399  and  _400
REMARK  158  A    between atoms: _403  and  _405
REMARK  159  A    between atoms: _405  and  _406
REMARK  160  A    between atoms: _405  and  _408
REMARK  161  A    between atoms: _408  and  _409
REMARK  162  A    between atoms: _409  and  _410
REMARK  163  A    between atoms: _410  and  _411
REMARK  164  A    between atoms: _420  and  _422
REMARK  165  A    between atoms: _422  and  _423
REMARK  166  A    between atoms: _422  and  _425
REMARK  167  A    between atoms: _425  and  _426
REMARK  168  A    between atoms: _429  and  _431
REMARK  169  A    between atoms: _431  and  _432
REMARK  170  A    between atoms: _431  and  _434
REMARK  171  A    between atoms: _434  and  _435
REMARK  172  A    between atoms: _438  and  _440
REMARK  173  A    between atoms: _440  and  _441
REMARK  174  A    between atoms: _440  and  _443
REMARK  175  A    between atoms: _443  and  _444
REMARK  176  A    between atoms: _447  and  _449
REMARK  177  A    between atoms: _449  and  _450
REMARK  178  A    between atoms: _449  and  _452
REMARK  179  A    between atoms: _452  and  _453
REMARK  180  A    between atoms: _456  and  _458
REMARK  181  A    between atoms: _458  and  _459
REMARK  182  A    between atoms: _458  and  _461
REMARK  183  A    between atoms: _461  and  _462
REMARK  184  A    between atoms: _462  and  _463
REMARK  185  A    between atoms: _463  and  _464
REMARK  186  A    between atoms: _473  and  _475
REMARK  187  A    between atoms: _475  and  _476
REMARK  188  A    between atoms: _475  and  _478
REMARK  189  A    between atoms: _481  and  _483
REMARK  190  A    between atoms: _483  and  _484
REMARK  191  A    between atoms: _483  and  _486
REMARK  192  A    between atoms: _486  and  _487
REMARK  193  A    between atoms: _492  and  _493
REMARK  194  A    between atoms: _495  and  _497
REMARK  195  A    between atoms: _497  and  _498
REMARK  196  A    between atoms: _497  and  _500
REMARK  197  A    between atoms: _500  and  _501
REMARK  198  A    between atoms: _503  and  _505
REMARK  199  A    between atoms: _505  and  _506
REMARK  200  A    between atoms: _505  and  _508
REMARK  201  A    between atoms: _508  and  _509
REMARK  202  A    between atoms: _514  and  _516
REMARK  203  A    between atoms: _516  and  _517
REMARK  204  A    between atoms: _516  and  _519
REMARK  205  A    between atoms: _519  and  _520
REMARK  206  A    between atoms: _522  and  _524
REMARK  207  A    between atoms: _524  and  _525
REMARK  208  A    between atoms: _524  and  _527
REMARK  209  A    between atoms: _527  and  _528
REMARK  210  A    between atoms: _528  and  _529
REMARK  211  A    between atoms: _532  and  _534
REMARK  212  A    between atoms: _534  and  _535
REMARK  213  A    between atoms: _534  and  _537
REMARK  214  A    between atoms: _537  and  _538
REMARK  215  A    between atoms: _543  and  _544
REMARK  216  A    between atoms: _546  and  _548
REMARK  217  A    between atoms: _548  and  _549
REMARK  218  A    between atoms: _552  and  _554
REMARK  219  A    between atoms: _554  and  _555
REMARK  220  A    between atoms: _554  and  _557
REMARK  221  A    between atoms: _557  and  _558
REMARK  222  A    between atoms: _562  and  _563
REMARK  223  A    between atoms: _568  and  _570
REMARK  224  A    between atoms: _570  and  _571
REMARK  225  A    between atoms: _570  and  _573
REMARK  226  A    between atoms: _573  and  _574
REMARK  227  A    between atoms: _577  and  _579
REMARK  228  A    between atoms: _579  and  _580
REMARK  229  A    between atoms: _579  and  _582
REMARK  230  A    between atoms: _582  and  _583
REMARK  231  A    between atoms: _583  and  _584
REMARK  232  A    between atoms: _589  and  _591
REMARK  233  A    between atoms: _591  and  _592
REMARK  234  A    between atoms: _591  and  _594
REMARK  235  A    between atoms: _594  and  _595
REMARK  236  A    between atoms: _598  and  _600
REMARK  237  A    between atoms: _600  and  _601
REMARK  238  A    between atoms: _600  and  _603
REMARK  239  A    between atoms: _603  and  _604
REMARK  240  A    between atoms: _607  and  _609
REMARK  241  A    between atoms: _609  and  _610
REMARK  242  A    between atoms: _609  and  _612
REMARK  243  A    between atoms: _612  and  _613
REMARK                            x       y       z     vdW  Elec       q    Type
REMARK                         _______ _______ _______ _____ _____    ______ ____
ROOT
ATOM      1  O   HOH     1      16.722  19.625  25.297  0.00  0.00    +0.000 OA
ENDROOT
TORSDOF 0
REMARK  Name = ../refined-set-2016/4f5y/4f5y_pocket.pdb
REMARK  243 active torsions:
REMARK  status: ('A' for Active; 'I' for Inactive)
REMARK    1  A    between atoms: _1  and  _3
REMARK    2  A    between atoms: _3  and  _4
REMARK    3  A    between atoms: _6  and  _8
REMARK    4  A    between atoms: _8  and  _9
REMARK    5  A    between atoms: _8  and  _11
REMARK    6  A    between atoms: _11  and  _12
REMARK    7  A    between atoms: _15  and  _17
REMARK    8  A    between atoms: _17  and  _18
REMARK    9  A    between atoms: _21  and  _23
REMARK   10  A    between atoms: _23  and  _24
REMARK   11  A    between atoms: _23  and  _26
REMARK   12  A    between atoms: _26  and  _27
REMARK   13  A    between atoms: _37  and  _39
REMARK   14  A    between atoms: _39  and  _40
REMARK   15  A    between atoms: _39  and  _42
REMARK   16  A    between atoms: _42  and  _43
REMARK   17  A    between atoms: _45  and  _47
REMARK   18  A    between atoms: _47  and  _48
REMARK   19  A    between atoms: _47  and  _50
REMARK   20  A    between atoms: _50  and  _51
REMARK   21  A    between atoms: _56  and  _57
REMARK   22  A    between atoms: _59  and  _61
REMARK   23  A    between atoms: _61  and  _62
REMARK   24  A    between atoms: _61  and  _64
REMARK   25  A    between atoms: _64  and  _65
REMARK   26  A    between atoms: _70  and  _71
REMARK   27  A    between atoms: _73  and  _75
REMARK   28  A    between atoms: _75  and  _76
REMARK   29  A    between atoms: _75  and  _78
REMARK   30  A    between atoms: _78  and  _79
REMARK   31  A    between atoms: _82  and  _84
REMARK   32  A    between atoms: _84  and  _85
REMARK   33  A    between atoms: _87  and  _89
REMARK   34  A    between atoms: _89  and  _90
REMARK   35  A    between atoms: _89  and  _92
REMARK   36  A    between atoms: _92  and  _93
REMARK   37  A    between atoms: _98  and  _99
REMARK   38  A    between atoms: _101  and  _103
REMARK   39  A    between atoms: _103  and  _104
REMARK   40  A    between atoms: _103  and  _106
REMARK   41  A    between atoms: _106  and  _107
REMARK   42  A    between atoms: _110  and  _112
REMARK   43  A    between atoms: _112  and  _113
REMARK   44  A    between atoms: _112  and  _115
REMARK   45  A    between atoms: _115  and  _116
REMARK   46  A    between atoms: _119  and  _121
REMARK   47  A    between atoms: _121  and  _122
REMARK   48  A    between atoms: _121  and  _124
REMARK   49  A    between atoms: _124  and  _125
REMARK   50  A    between atoms: _128  and  _130
REMARK   51  A    between atoms: _130  and  _131
REMARK   52  A    between atoms: _130  and  _133
REMARK   53  A    between atoms: _133  and  _134
REMARK   54  A    between atoms: _137  and  _139
REMARK   55  A    between atoms: _139  and  _140
REMARK   56  A    between atoms: _139  and  _142
REMARK   57  A    between atoms: _142  and  _143
REMARK   58  A    between atoms: _143  and  _144
REMARK   59  A    between atoms: _144  and  _145
REMARK   60  A    between atoms: _145  and  _146
REMARK   61  A    between atoms: _150  and  _152
REMARK   62  A    between atoms: _152  and  _153
REMARK   63  A    between atoms: _152  and  _155
REMARK   64  A    between atoms: _155  and  _156
REMARK   65  A    between atoms: _159  and  _161
REMARK   66  A    between atoms: _161  and  _162
REMARK   67  A    between atoms: _161  and  _164
REMARK   68  A    between atoms: _164  and  _165
REMARK   69  A    between atoms: _165  and  _166
REMARK   70  A    between atoms: _166  and  _167
REMARK   71  A    between atoms: _176  and  _178
REMARK   72  A    between atoms: _178  and  _179
REMARK   73  A    between atoms: _178  and  _181
REMARK   74  A    between atoms: _184  and  _186
REMARK   75  A    between atoms: _186  and  _187
REMARK   76  A    between atoms: _186  and  _189
REMARK   77  A    between atoms: _189  and  _190
REMARK   78  A    between atoms: _195  and  _196
REMARK   79  A    between atoms: _198  and  _200
REMARK   80  A    between atoms: _200  and  _201
REMARK   81  A    between atoms: _200  and  _203
REMARK   82  A    between atoms: _203  and  _204
REMARK   83  A    between atoms: _206  and  _208
REMARK   84  A    between atoms: _208  and  _209
REMARK   85  A    between atoms: _208  and  _211
REMARK   86  A    between atoms: _211  and  _212
REMARK   87  A    between atoms: _212  and  _213
REMARK   88  A    between atoms: _216  and  _218
REMARK   89  A    between atoms: _218  and  _219
REMARK   90  A    between atoms: _218  and  _221
REMARK   91  A    between atoms: _221  and  _222
REMARK   92  A    between atoms: _227  and  _228
REMARK   93  A    between atoms: _230  and  _232
REMARK   94  A    between atoms: _232  and  _233
REMARK   95  A    between atoms: _236  and  _238
REMARK   96  A    between atoms: _238  and  _239
REMARK   97  A    between atoms: _238  and  _241
REMARK   98  A    between atoms: _241  and  _242
REMARK   99  A    between atoms: _246  and  _247
REMARK  100  A    between atoms: _252  and  _254
REMARK  101  A    between atoms: _254  and  _255
REMARK  102  A    between atoms: _254  and  _257
REMARK  103  A    between atoms: _257  and  _258
REMARK  104  A    between atoms: _261  and  _263
REMARK  105  A    between atoms: _263  and  _264
REMARK  106  A    between atoms: _263  and  _266
REMARK  107  A    between atoms: _266  and  _267
REMARK  108  A    between atoms: _267  and  _268
REMARK  109  A    between atoms: _273  and  _275
REMARK  110  A    between atoms: _275  and  _276
REMARK  111  A    between atoms: _275  and  _278
REMARK  112  A    between atoms: _278  and  _279
REMARK  113  A    between atoms: _282  and  _284
REMARK  114  A    between atoms: _284  and  _285
REMARK  115  A    between atoms: _284  and  _287
REMARK  116  A    between atoms: _287  and  _288
REMARK  117  A    between atoms: _294  and  _296
REMARK  118  A    between atoms: _296  and  _297
REMARK  119  A    between atoms: _299  and  _301
REMARK  120  A    between atoms: _301  and  _302
REMARK  121  A    between atoms: _301  and  _304
REMARK  122  A    between atoms: _304  and  _305
REMARK  123  A    between atoms: _308  and  _310
REMARK  124  A    between atoms: _310  and  _311
REMARK  125  A    between atoms: _314  and  _316
REMARK  126  A    between atoms: _316  and  _317
REMARK  127  A    between atoms: _316  and  _319
REMARK  128  A    between atoms: _319  and  _320
REMARK  129  A    between atoms: _330  and  _332
REMARK  130  A    between atoms: _332  and  _333
REMARK  131  A    between atoms: _332  and  _335
REMARK  132  A    between atoms: _335  and  _336
REMARK  133  A    between atoms: _338  and  _340
REMARK  134  A    between atoms: _340  and  _341
REMARK  135  A    between atoms: _340  and  _343
REMARK  136  A    between atoms: _343  and  _344
REMARK  137  A    between atoms: _349  and  _350
REMARK  138  A    between atoms: _352  and  _354
REMARK  139  A    between atoms: _354  and  _355
REMARK  140  A    between atoms: _354  and  _357
REMARK  141  A    between atoms: _357  and  _358
REMARK  142  A    between atoms: _363  and  _364
REMARK  143  A    between atoms: _366  and  _368
REMARK  144  A    between atoms: _368  and  _369
REMARK  145  A    between atoms: _368  and  _371
REMARK  146  A    between atoms: _371  and  _372
REMARK  147  A    between atoms: _375  and  _377
REMARK  148  A    between atoms: _377  and  _378
REMARK  149  A    between atoms: _380  and  _382
REMARK  150  A    between atoms: _382  and  _383
REMARK  151  A    between atoms: _382  and  _385
REMARK  152  A    between atoms: _385  and  _386
REMARK  153  A    between atoms: _391  and  _392
REMARK  154  A    between atoms: _394  and  _396
REMARK  155  A    between atoms: _396  and  _397
REMARK  156  A    between atoms: _396  and  _399
REMARK  157  A    between atoms: _399  and  _400
REMARK  158  A    between atoms: _403  and  _405
REMARK  159  A    between atoms: _405  and  _406
REMARK  160  A    between atoms: _405  and  _408
REMARK  161  A    between atoms: _408  and  _409
REMARK  162  A    between atoms: _409  and  _410
REMARK  163  A    between atoms: _410  and  _411
REMARK  164  A    between atoms: _420  and  _422
REMARK  165  A    between atoms: _422  and  _423
REMARK  166  A    between atoms: _422  and  _425
REMARK  167  A    between atoms: _425  and  _426
REMARK  168  A    between atoms: _429  and  _431
REMARK  169  A    between atoms: _431  and  _432
REMARK  170  A    between atoms: _431  and  _434
REMARK  171  A    between atoms: _434  and  _435
REMARK  172  A    between atoms: _438  and  _440
REMARK  173  A    between atoms: _440  and  _441
REMARK  174  A    between atoms: _440  and  _443
REMARK  175  A    between atoms: _443  and  _444
REMARK  176  A    between atoms: _447  and  _449
REMARK  177  A    between atoms: _449  and  _450
REMARK  178  A    between atoms: _449  and  _452
REMARK  179  A    between atoms: _452  and  _453
REMARK  180  A    between atoms: _456  and  _458
REMARK  181  A    between atoms: _458  and  _459
REMARK  182  A    between atoms: _458  and  _461
REMARK  183  A    between atoms: _461  and  _462
REMARK  184  A    between atoms: _462  and  _463
REMARK  185  A    between atoms: _463  and  _464
REMARK  186  A    between atoms: _473  and  _475
REMARK  187  A    between atoms: _475  and  _476
REMARK  188  A    between atoms: _475  and  _478
REMARK  189  A    between atoms: _481  and  _483
REMARK  190  A    between atoms: _483  and  _484
REMARK  191  A    between atoms: _483  and  _486
REMARK  192  A    between atoms: _486  and  _487
REMARK  193  A    between atoms: _492  and  _493
REMARK  194  A    between atoms: _495  and  _497
REMARK  195  A    between atoms: _497  and  _498
REMARK  196  A    between atoms: _497  and  _500
REMARK  197  A    between atoms: _500  and  _501
REMARK  198  A    between atoms: _503  and  _505
REMARK  199  A    between atoms: _505  and  _506
REMARK  200  A    between atoms: _505  and  _508
REMARK  201  A    between atoms: _508  and  _509
REMARK  202  A    between atoms: _514  and  _516
REMARK  203  A    between atoms: _516  and  _517
REMARK  204  A    between atoms: _516  and  _519
REMARK  205  A    between atoms: _519  and  _520
REMARK  206  A    between atoms: _522  and  _524
REMARK  207  A    between atoms: _524  and  _525
REMARK  208  A    between atoms: _524  and  _527
REMARK  209  A    between atoms: _527  and  _528
REMARK  210  A    between atoms: _528  and  _529
REMARK  211  A    between atoms: _532  and  _534
REMARK  212  A    between atoms: _534  and  _535
REMARK  213  A    between atoms: _534  and  _537
REMARK  214  A    between atoms: _537  and  _538
REMARK  215  A    between atoms: _543  and  _544
REMARK  216  A    between atoms: _546  and  _548
REMARK  217  A    between atoms: _548  and  _549
REMARK  218  A    between atoms: _552  and  _554
REMARK  219  A    between atoms: _554  and  _555
REMARK  220  A    between atoms: _554  and  _557
REMARK  221  A    between atoms: _557  and  _558
REMARK  222  A    between atoms: _562  and  _563
REMARK  223  A    between atoms: _568  and  _570
REMARK  224  A    between atoms: _570  and  _571
REMARK  225  A    between atoms: _570  and  _573
REMARK  226  A    between atoms: _573  and  _574
REMARK  227  A    between atoms: _577  and  _579
REMARK  228  A    between atoms: _579  and  _580
REMARK  229  A    between atoms: _579  and  _582
REMARK  230  A    between atoms: _582  and  _583
REMARK  231  A    between atoms: _583  and  _584
REMARK  232  A    between atoms: _589  and  _591
REMARK  233  A    between atoms: _591  and  _592
REMARK  234  A    between atoms: _591  and  _594
REMARK  235  A    between atoms: _594  and  _595
REMARK  236  A    between atoms: _598  and  _600
REMARK  237  A    between atoms: _600  and  _601
REMARK  238  A    between atoms: _600  and  _603
REMARK  239  A    between atoms: _603  and  _604
REMARK  240  A    between atoms: _607  and  _609
REMARK  241  A    between atoms: _609  and  _610
REMARK  242  A    between atoms: _609  and  _612
REMARK  243  A    between atoms: _612  and  _613
REMARK                            x       y       z     vdW  Elec       q    Type
REMARK                         _______ _______ _______ _____ _____    ______ ____
ROOT
ATOM      1  O   HOH     1      10.455  17.903   8.973  0.00  0.00    +0.000 OA
ENDROOT
TORSDOF 0
REMARK  Name = ../refined-set-2016/4f5y/4f5y_pocket.pdb
REMARK  243 active torsions:
REMARK  status: ('A' for Active; 'I' for Inactive)
REMARK    1  A    between atoms: _1  and  _3
REMARK    2  A    between atoms: _3  and  _4
REMARK    3  A    between atoms: _6  and  _8
REMARK    4  A    between atoms: _8  and  _9
REMARK    5  A    between atoms: _8  and  _11
REMARK    6  A    between atoms: _11  and  _12
REMARK    7  A    between atoms: _15  and  _17
REMARK    8  A    between atoms: _17  and  _18
REMARK    9  A    between atoms: _21  and  _23
REMARK   10  A    between atoms: _23  and  _24
REMARK   11  A    between atoms: _23  and  _26
REMARK   12  A    between atoms: _26  and  _27
REMARK   13  A    between atoms: _37  and  _39
REMARK   14  A    between atoms: _39  and  _40
REMARK   15  A    between atoms: _39  and  _42
REMARK   16  A    between atoms: _42  and  _43
REMARK   17  A    between atoms: _45  and  _47
REMARK   18  A    between atoms: _47  and  _48
REMARK   19  A    between atoms: _47  and  _50
REMARK   20  A    between atoms: _50  and  _51
REMARK   21  A    between atoms: _56  and  _57
REMARK   22  A    between atoms: _59  and  _61
REMARK   23  A    between atoms: _61  and  _62
REMARK   24  A    between atoms: _61  and  _64
REMARK   25  A    between atoms: _64  and  _65
REMARK   26  A    between atoms: _70  and  _71
REMARK   27  A    between atoms: _73  and  _75
REMARK   28  A    between atoms: _75  and  _76
REMARK   29  A    between atoms: _75  and  _78
REMARK   30  A    between atoms: _78  and  _79
REMARK   31  A    between atoms: _82  and  _84
REMARK   32  A    between atoms: _84  and  _85
REMARK   33  A    between atoms: _87  and  _89
REMARK   34  A    between atoms: _89  and  _90
REMARK   35  A    between atoms: _89  and  _92
REMARK   36  A    between atoms: _92  and  _93
REMARK   37  A    between atoms: _98  and  _99
REMARK   38  A    between atoms: _101  and  _103
REMARK   39  A    between atoms: _103  and  _104
REMARK   40  A    between atoms: _103  and  _106
REMARK   41  A    between atoms: _106  and  _107
REMARK   42  A    between atoms: _110  and  _112
REMARK   43  A    between atoms: _112  and  _113
REMARK   44  A    between atoms: _112  and  _115
REMARK   45  A    between atoms: _115  and  _116
REMARK   46  A    between atoms: _119  and  _121
REMARK   47  A    between atoms: _121  and  _122
REMARK   48  A    between atoms: _121  and  _124
REMARK   49  A    between atoms: _124  and  _125
REMARK   50  A    between atoms: _128  and  _130
REMARK   51  A    between atoms: _130  and  _131
REMARK   52  A    between atoms: _130  and  _133
REMARK   53  A    between atoms: _133  and  _134
REMARK   54  A    between atoms: _137  and  _139
REMARK   55  A    between atoms: _139  and  _140
REMARK   56  A    between atoms: _139  and  _142
REMARK   57  A    between atoms: _142  and  _143
REMARK   58  A    between atoms: _143  and  _144
REMARK   59  A    between atoms: _144  and  _145
REMARK   60  A    between atoms: _145  and  _146
REMARK   61  A    between atoms: _150  and  _152
REMARK   62  A    between atoms: _152  and  _153
REMARK   63  A    between atoms: _152  and  _155
REMARK   64  A    between atoms: _155  and  _156
REMARK   65  A    between atoms: _159  and  _161
REMARK   66  A    between atoms: _161  and  _162
REMARK   67  A    between atoms: _161  and  _164
REMARK   68  A    between atoms: _164  and  _165
REMARK   69  A    between atoms: _165  and  _166
REMARK   70  A    between atoms: _166  and  _167
REMARK   71  A    between atoms: _176  and  _178
REMARK   72  A    between atoms: _178  and  _179
REMARK   73  A    between atoms: _178  and  _181
REMARK   74  A    between atoms: _184  and  _186
REMARK   75  A    between atoms: _186  and  _187
REMARK   76  A    between atoms: _186  and  _189
REMARK   77  A    between atoms: _189  and  _190
REMARK   78  A    between atoms: _195  and  _196
REMARK   79  A    between atoms: _198  and  _200
REMARK   80  A    between atoms: _200  and  _201
REMARK   81  A    between atoms: _200  and  _203
REMARK   82  A    between atoms: _203  and  _204
REMARK   83  A    between atoms: _206  and  _208
REMARK   84  A    between atoms: _208  and  _209
REMARK   85  A    between atoms: _208  and  _211
REMARK   86  A    between atoms: _211  and  _212
REMARK   87  A    between atoms: _212  and  _213
REMARK   88  A    between atoms: _216  and  _218
REMARK   89  A    between atoms: _218  and  _219
REMARK   90  A    between atoms: _218  and  _221
REMARK   91  A    between atoms: _221  and  _222
REMARK   92  A    between atoms: _227  and  _228
REMARK   93  A    between atoms: _230  and  _232
REMARK   94  A    between atoms: _232  and  _233
REMARK   95  A    between atoms: _236  and  _238
REMARK   96  A    between atoms: _238  and  _239
REMARK   97  A    between atoms: _238  and  _241
REMARK   98  A    between atoms: _241  and  _242
REMARK   99  A    between atoms: _246  and  _247
REMARK  100  A    between atoms: _252  and  _254
REMARK  101  A    between atoms: _254  and  _255
REMARK  102  A    between atoms: _254  and  _257
REMARK  103  A    between atoms: _257  and  _258
REMARK  104  A    between atoms: _261  and  _263
REMARK  105  A    between atoms: _263  and  _264
REMARK  106  A    between atoms: _263  and  _266
REMARK  107  A    between atoms: _266  and  _267
REMARK  108  A    between atoms: _267  and  _268
REMARK  109  A    between atoms: _273  and  _275
REMARK  110  A    between atoms: _275  and  _276
REMARK  111  A    between atoms: _275  and  _278
REMARK  112  A    between atoms: _278  and  _279
REMARK  113  A    between atoms: _282  and  _284
REMARK  114  A    between atoms: _284  and  _285
REMARK  115  A    between atoms: _284  and  _287
REMARK  116  A    between atoms: _287  and  _288
REMARK  117  A    between atoms: _294  and  _296
REMARK  118  A    between atoms: _296  and  _297
REMARK  119  A    between atoms: _299  and  _301
REMARK  120  A    between atoms: _301  and  _302
REMARK  121  A    between atoms: _301  and  _304
REMARK  122  A    between atoms: _304  and  _305
REMARK  123  A    between atoms: _308  and  _310
REMARK  124  A    between atoms: _310  and  _311
REMARK  125  A    between atoms: _314  and  _316
REMARK  126  A    between atoms: _316  and  _317
REMARK  127  A    between atoms: _316  and  _319
REMARK  128  A    between atoms: _319  and  _320
REMARK  129  A    between atoms: _330  and  _332
REMARK  130  A    between atoms: _332  and  _333
REMARK  131  A    between atoms: _332  and  _335
REMARK  132  A    between atoms: _335  and  _336
REMARK  133  A    between atoms: _338  and  _340
REMARK  134  A    between atoms: _340  and  _341
REMARK  135  A    between atoms: _340  and  _343
REMARK  136  A    between atoms: _343  and  _344
REMARK  137  A    between atoms: _349  and  _350
REMARK  138  A    between atoms: _352  and  _354
REMARK  139  A    between atoms: _354  and  _355
REMARK  140  A    between atoms: _354  and  _357
REMARK  141  A    between atoms: _357  and  _358
REMARK  142  A    between atoms: _363  and  _364
REMARK  143  A    between atoms: _366  and  _368
REMARK  144  A    between atoms: _368  and  _369
REMARK  145  A    between atoms: _368  and  _371
REMARK  146  A    between atoms: _371  and  _372
REMARK  147  A    between atoms: _375  and  _377
REMARK  148  A    between atoms: _377  and  _378
REMARK  149  A    between atoms: _380  and  _382
REMARK  150  A    between atoms: _382  and  _383
REMARK  151  A    between atoms: _382  and  _385
REMARK  152  A    between atoms: _385  and  _386
REMARK  153  A    between atoms: _391  and  _392
REMARK  154  A    between atoms: _394  and  _396
REMARK  155  A    between atoms: _396  and  _397
REMARK  156  A    between atoms: _396  and  _399
REMARK  157  A    between atoms: _399  and  _400
REMARK  158  A    between atoms: _403  and  _405
REMARK  159  A    between atoms: _405  and  _406
REMARK  160  A    between atoms: _405  and  _408
REMARK  161  A    between atoms: _408  and  _409
REMARK  162  A    between atoms: _409  and  _410
REMARK  163  A    between atoms: _410  and  _411
REMARK  164  A    between atoms: _420  and  _422
REMARK  165  A    between atoms: _422  and  _423
REMARK  166  A    between atoms: _422  and  _425
REMARK  167  A    between atoms: _425  and  _426
REMARK  168  A    between atoms: _429  and  _431
REMARK  169  A    between atoms: _431  and  _432
REMARK  170  A    between atoms: _431  and  _434
REMARK  171  A    between atoms: _434  and  _435
REMARK  172  A    between atoms: _438  and  _440
REMARK  173  A    between atoms: _440  and  _441
REMARK  174  A    between atoms: _440  and  _443
REMARK  175  A    between atoms: _443  and  _444
REMARK  176  A    between atoms: _447  and  _449
REMARK  177  A    between atoms: _449  and  _450
REMARK  178  A    between atoms: _449  and  _452
REMARK  179  A    between atoms: _452  and  _453
REMARK  180  A    between atoms: _456  and  _458
REMARK  181  A    between atoms: _458  and  _459
REMARK  182  A    between atoms: _458  and  _461
REMARK  183  A    between atoms: _461  and  _462
REMARK  184  A    between atoms: _462  and  _463
REMARK  185  A    between atoms: _463  and  _464
REMARK  186  A    between atoms: _473  and  _475
REMARK  187  A    between atoms: _475  and  _476
REMARK  188  A    between atoms: _475  and  _478
REMARK  189  A    between atoms: _481  and  _483
REMARK  190  A    between atoms: _483  and  _484
REMARK  191  A    between atoms: _483  and  _486
REMARK  192  A    between atoms: _486  and  _487
REMARK  193  A    between atoms: _492  and  _493
REMARK  194  A    between atoms: _495  and  _497
REMARK  195  A    between atoms: _497  and  _498
REMARK  196  A    between atoms: _497  and  _500
REMARK  197  A    between atoms: _500  and  _501
REMARK  198  A    between atoms: _503  and  _505
REMARK  199  A    between atoms: _505  and  _506
REMARK  200  A    between atoms: _505  and  _508
REMARK  201  A    between atoms: _508  and  _509
REMARK  202  A    between atoms: _514  and  _516
REMARK  203  A    between atoms: _516  and  _517
REMARK  204  A    between atoms: _516  and  _519
REMARK  205  A    between atoms: _519  and  _520
REMARK  206  A    between atoms: _522  and  _524
REMARK  207  A    between atoms: _524  and  _525
REMARK  208  A    between atoms: _524  and  _527
REMARK  209  A    between atoms: _527  and  _528
REMARK  210  A    between atoms: _528  and  _529
REMARK  211  A    between atoms: _532  and  _534
REMARK  212  A    between atoms: _534  and  _535
REMARK  213  A    between atoms: _534  and  _537
REMARK  214  A    between atoms: _537  and  _538
REMARK  215  A    between atoms: _543  and  _544
REMARK  216  A    between atoms: _546  and  _548
REMARK  217  A    between atoms: _548  and  _549
REMARK  218  A    between atoms: _552  and  _554
REMARK  219  A    between atoms: _554  and  _555
REMARK  220  A    between atoms: _554  and  _557
REMARK  221  A    between atoms: _557  and  _558
REMARK  222  A    between atoms: _562  and  _563
REMARK  223  A    between atoms: _568  and  _570
REMARK  224  A    between atoms: _570  and  _571
REMARK  225  A    between atoms: _570  and  _573
REMARK  226  A    between atoms: _573  and  _574
REMARK  227  A    between atoms: _577  and  _579
REMARK  228  A    between atoms: _579  and  _580
REMARK  229  A    between atoms: _579  and  _582
REMARK  230  A    between atoms: _582  and  _583
REMARK  231  A    between atoms: _583  and  _584
REMARK  232  A    between atoms: _589  and  _591
REMARK  233  A    between atoms: _591  and  _592
REMARK  234  A    between atoms: _591  and  _594
REMARK  235  A    between atoms: _594  and  _595
REMARK  236  A    between atoms: _598  and  _600
REMARK  237  A    between atoms: _600  and  _601
REMARK  238  A    between atoms: _600  and  _603
REMARK  239  A    between atoms: _603  and  _604
REMARK  240  A    between atoms: _607  and  _609
REMARK  241  A    between atoms: _609  and  _610
REMARK  242  A    between atoms: _609  and  _612
REMARK  243  A    between atoms: _612  and  _613
REMARK                            x       y       z     vdW  Elec       q    Type
REMARK                         _______ _______ _______ _____ _____    ______ ____
ROOT
ATOM      1  O   HOH     1      15.499  11.931  16.058  0.00  0.00    +0.000 OA
ENDROOT
TORSDOF 0
REMARK  Name = ../refined-set-2016/4f5y/4f5y_pocket.pdb
REMARK  243 active torsions:
REMARK  status: ('A' for Active; 'I' for Inactive)
REMARK    1  A    between atoms: _1  and  _3
REMARK    2  A    between atoms: _3  and  _4
REMARK    3  A    between atoms: _6  and  _8
REMARK    4  A    between atoms: _8  and  _9
REMARK    5  A    between atoms: _8  and  _11
REMARK    6  A    between atoms: _11  and  _12
REMARK    7  A    between atoms: _15  and  _17
REMARK    8  A    between atoms: _17  and  _18
REMARK    9  A    between atoms: _21  and  _23
REMARK   10  A    between atoms: _23  and  _24
REMARK   11  A    between atoms: _23  and  _26
REMARK   12  A    between atoms: _26  and  _27
REMARK   13  A    between atoms: _37  and  _39
REMARK   14  A    between atoms: _39  and  _40
REMARK   15  A    between atoms: _39  and  _42
REMARK   16  A    between atoms: _42  and  _43
REMARK   17  A    between atoms: _45  and  _47
REMARK   18  A    between atoms: _47  and  _48
REMARK   19  A    between atoms: _47  and  _50
REMARK   20  A    between atoms: _50  and  _51
REMARK   21  A    between atoms: _56  and  _57
REMARK   22  A    between atoms: _59  and  _61
REMARK   23  A    between atoms: _61  and  _62
REMARK   24  A    between atoms: _61  and  _64
REMARK   25  A    between atoms: _64  and  _65
REMARK   26  A    between atoms: _70  and  _71
REMARK   27  A    between atoms: _73  and  _75
REMARK   28  A    between atoms: _75  and  _76
REMARK   29  A    between atoms: _75  and  _78
REMARK   30  A    between atoms: _78  and  _79
REMARK   31  A    between atoms: _82  and  _84
REMARK   32  A    between atoms: _84  and  _85
REMARK   33  A    between atoms: _87  and  _89
REMARK   34  A    between atoms: _89  and  _90
REMARK   35  A    between atoms: _89  and  _92
REMARK   36  A    between atoms: _92  and  _93
REMARK   37  A    between atoms: _98  and  _99
REMARK   38  A    between atoms: _101  and  _103
REMARK   39  A    between atoms: _103  and  _104
REMARK   40  A    between atoms: _103  and  _106
REMARK   41  A    between atoms: _106  and  _107
REMARK   42  A    between atoms: _110  and  _112
REMARK   43  A    between atoms: _112  and  _113
REMARK   44  A    between atoms: _112  and  _115
REMARK   45  A    between atoms: _115  and  _116
REMARK   46  A    between atoms: _119  and  _121
REMARK   47  A    between atoms: _121  and  _122
REMARK   48  A    between atoms: _121  and  _124
REMARK   49  A    between atoms: _124  and  _125
REMARK   50  A    between atoms: _128  and  _130
REMARK   51  A    between atoms: _130  and  _131
REMARK   52  A    between atoms: _130  and  _133
REMARK   53  A    between atoms: _133  and  _134
REMARK   54  A    between atoms: _137  and  _139
REMARK   55  A    between atoms: _139  and  _140
REMARK   56  A    between atoms: _139  and  _142
REMARK   57  A    between atoms: _142  and  _143
REMARK   58  A    between atoms: _143  and  _144
REMARK   59  A    between atoms: _144  and  _145
REMARK   60  A    between atoms: _145  and  _146
REMARK   61  A    between atoms: _150  and  _152
REMARK   62  A    between atoms: _152  and  _153
REMARK   63  A    between atoms: _152  and  _155
REMARK   64  A    between atoms: _155  and  _156
REMARK   65  A    between atoms: _159  and  _161
REMARK   66  A    between atoms: _161  and  _162
REMARK   67  A    between atoms: _161  and  _164
REMARK   68  A    between atoms: _164  and  _165
REMARK   69  A    between atoms: _165  and  _166
REMARK   70  A    between atoms: _166  and  _167
REMARK   71  A    between atoms: _176  and  _178
REMARK   72  A    between atoms: _178  and  _179
REMARK   73  A    between atoms: _178  and  _181
REMARK   74  A    between atoms: _184  and  _186
REMARK   75  A    between atoms: _186  and  _187
REMARK   76  A    between atoms: _186  and  _189
REMARK   77  A    between atoms: _189  and  _190
REMARK   78  A    between atoms: _195  and  _196
REMARK   79  A    between atoms: _198  and  _200
REMARK   80  A    between atoms: _200  and  _201
REMARK   81  A    between atoms: _200  and  _203
REMARK   82  A    between atoms: _203  and  _204
REMARK   83  A    between atoms: _206  and  _208
REMARK   84  A    between atoms: _208  and  _209
REMARK   85  A    between atoms: _208  and  _211
REMARK   86  A    between atoms: _211  and  _212
REMARK   87  A    between atoms: _212  and  _213
REMARK   88  A    between atoms: _216  and  _218
REMARK   89  A    between atoms: _218  and  _219
REMARK   90  A    between atoms: _218  and  _221
REMARK   91  A    between atoms: _221  and  _222
REMARK   92  A    between atoms: _227  and  _228
REMARK   93  A    between atoms: _230  and  _232
REMARK   94  A    between atoms: _232  and  _233
REMARK   95  A    between atoms: _236  and  _238
REMARK   96  A    between atoms: _238  and  _239
REMARK   97  A    between atoms: _238  and  _241
REMARK   98  A    between atoms: _241  and  _242
REMARK   99  A    between atoms: _246  and  _247
REMARK  100  A    between atoms: _252  and  _254
REMARK  101  A    between atoms: _254  and  _255
REMARK  102  A    between atoms: _254  and  _257
REMARK  103  A    between atoms: _257  and  _258
REMARK  104  A    between atoms: _261  and  _263
REMARK  105  A    between atoms: _263  and  _264
REMARK  106  A    between atoms: _263  and  _266
REMARK  107  A    between atoms: _266  and  _267
REMARK  108  A    between atoms: _267  and  _268
REMARK  109  A    between atoms: _273  and  _275
REMARK  110  A    between atoms: _275  and  _276
REMARK  111  A    between atoms: _275  and  _278
REMARK  112  A    between atoms: _278  and  _279
REMARK  113  A    between atoms: _282  and  _284
REMARK  114  A    between atoms: _284  and  _285
REMARK  115  A    between atoms: _284  and  _287
REMARK  116  A    between atoms: _287  and  _288
REMARK  117  A    between atoms: _294  and  _296
REMARK  118  A    between atoms: _296  and  _297
REMARK  119  A    between atoms: _299  and  _301
REMARK  120  A    between atoms: _301  and  _302
REMARK  121  A    between atoms: _301  and  _304
REMARK  122  A    between atoms: _304  and  _305
REMARK  123  A    between atoms: _308  and  _310
REMARK  124  A    between atoms: _310  and  _311
REMARK  125  A    between atoms: _314  and  _316
REMARK  126  A    between atoms: _316  and  _317
REMARK  127  A    between atoms: _316  and  _319
REMARK  128  A    between atoms: _319  and  _320
REMARK  129  A    between atoms: _330  and  _332
REMARK  130  A    between atoms: _332  and  _333
REMARK  131  A    between atoms: _332  and  _335
REMARK  132  A    between atoms: _335  and  _336
REMARK  133  A    between atoms: _338  and  _340
REMARK  134  A    between atoms: _340  and  _341
REMARK  135  A    between atoms: _340  and  _343
REMARK  136  A    between atoms: _343  and  _344
REMARK  137  A    between atoms: _349  and  _350
REMARK  138  A    between atoms: _352  and  _354
REMARK  139  A    between atoms: _354  and  _355
REMARK  140  A    between atoms: _354  and  _357
REMARK  141  A    between atoms: _357  and  _358
REMARK  142  A    between atoms: _363  and  _364
REMARK  143  A    between atoms: _366  and  _368
REMARK  144  A    between atoms: _368  and  _369
REMARK  145  A    between atoms: _368  and  _371
REMARK  146  A    between atoms: _371  and  _372
REMARK  147  A    between atoms: _375  and  _377
REMARK  148  A    between atoms: _377  and  _378
REMARK  149  A    between atoms: _380  and  _382
REMARK  150  A    between atoms: _382  and  _383
REMARK  151  A    between atoms: _382  and  _385
REMARK  152  A    between atoms: _385  and  _386
REMARK  153  A    between atoms: _391  and  _392
REMARK  154  A    between atoms: _394  and  _396
REMARK  155  A    between atoms: _396  and  _397
REMARK  156  A    between atoms: _396  and  _399
REMARK  157  A    between atoms: _399  and  _400
REMARK  158  A    between atoms: _403  and  _405
REMARK  159  A    between atoms: _405  and  _406
REMARK  160  A    between atoms: _405  and  _408
REMARK  161  A    between atoms: _408  and  _409
REMARK  162  A    between atoms: _409  and  _410
REMARK  163  A    between atoms: _410  and  _411
REMARK  164  A    between atoms: _420  and  _422
REMARK  165  A    between atoms: _422  and  _423
REMARK  166  A    between atoms: _422  and  _425
REMARK  167  A    between atoms: _425  and  _426
REMARK  168  A    between atoms: _429  and  _431
REMARK  169  A    between atoms: _431  and  _432
REMARK  170  A    between atoms: _431  and  _434
REMARK  171  A    between atoms: _434  and  _435
REMARK  172  A    between atoms: _438  and  _440
REMARK  173  A    between atoms: _440  and  _441
REMARK  174  A    between atoms: _440  and  _443
REMARK  175  A    between atoms: _443  and  _444
REMARK  176  A    between atoms: _447  and  _449
REMARK  177  A    between atoms: _449  and  _450
REMARK  178  A    between atoms: _449  and  _452
REMARK  179  A    between atoms: _452  and  _453
REMARK  180  A    between atoms: _456  and  _458
REMARK  181  A    between atoms: _458  and  _459
REMARK  182  A    between atoms: _458  and  _461
REMARK  183  A    between atoms: _461  and  _462
REMARK  184  A    between atoms: _462  and  _463
REMARK  185  A    between atoms: _463  and  _464
REMARK  186  A    between atoms: _473  and  _475
REMARK  187  A    between atoms: _475  and  _476
REMARK  188  A    between atoms: _475  and  _478
REMARK  189  A    between atoms: _481  and  _483
REMARK  190  A    between atoms: _483  and  _484
REMARK  191  A    between atoms: _483  and  _486
REMARK  192  A    between atoms: _486  and  _487
REMARK  193  A    between atoms: _492  and  _493
REMARK  194  A    between atoms: _495  and  _497
REMARK  195  A    between atoms: _497  and  _498
REMARK  196  A    between atoms: _497  and  _500
REMARK  197  A    between atoms: _500  and  _501
REMARK  198  A    between atoms: _503  and  _505
REMARK  199  A    between atoms: _505  and  _506
REMARK  200  A    between atoms: _505  and  _508
REMARK  201  A    between atoms: _508  and  _509
REMARK  202  A    between atoms: _514  and  _516
REMARK  203  A    between atoms: _516  and  _517
REMARK  204  A    between atoms: _516  and  _519
REMARK  205  A    between atoms: _519  and  _520
REMARK  206  A    between atoms: _522  and  _524
REMARK  207  A    between atoms: _524  and  _525
REMARK  208  A    between atoms: _524  and  _527
REMARK  209  A    between atoms: _527  and  _528
REMARK  210  A    between atoms: _528  and  _529
REMARK  211  A    between atoms: _532  and  _534
REMARK  212  A    between atoms: _534  and  _535
REMARK  213  A    between atoms: _534  and  _537
REMARK  214  A    between atoms: _537  and  _538
REMARK  215  A    between atoms: _543  and  _544
REMARK  216  A    between atoms: _546  and  _548
REMARK  217  A    between atoms: _548  and  _549
REMARK  218  A    between atoms: _552  and  _554
REMARK  219  A    between atoms: _554  and  _555
REMARK  220  A    between atoms: _554  and  _557
REMARK  221  A    between atoms: _557  and  _558
REMARK  222  A    between atoms: _562  and  _563
REMARK  223  A    between atoms: _568  and  _570
REMARK  224  A    between atoms: _570  and  _571
REMARK  225  A    between atoms: _570  and  _573
REMARK  226  A    between atoms: _573  and  _574
REMARK  227  A    between atoms: _577  and  _579
REMARK  228  A    between atoms: _579  and  _580
REMARK  229  A    between atoms: _579  and  _582
REMARK  230  A    between atoms: _582  and  _583
REMARK  231  A    between atoms: _583  and  _584
REMARK  232  A    between atoms: _589  and  _591
REMARK  233  A    between atoms: _591  and  _592
REMARK  234  A    between atoms: _591  and  _594
REMARK  235  A    between atoms: _594  and  _595
REMARK  236  A    between atoms: _598  and  _600
REMARK  237  A    between atoms: _600  and  _601
REMARK  238  A    between atoms: _600  and  _603
REMARK  239  A    between atoms: _603  and  _604
REMARK  240  A    between atoms: _607  and  _609
REMARK  241  A    between atoms: _609  and  _610
REMARK  242  A    between atoms: _609  and  _612
REMARK  243  A    between atoms: _612  and  _613
REMARK                            x       y       z     vdW  Elec       q    Type
REMARK                         _______ _______ _______ _____ _____    ______ ____
ROOT
ATOM      1  O   HOH     1      13.760  13.417  14.627  0.00  0.00    +0.000 OA
ENDROOT
TORSDOF 0
REMARK  Name = ../refined-set-2016/4f5y/4f5y_pocket.pdb
REMARK  243 active torsions:
REMARK  status: ('A' for Active; 'I' for Inactive)
REMARK    1  A    between atoms: _1  and  _3
REMARK    2  A    between atoms: _3  and  _4
REMARK    3  A    between atoms: _6  and  _8
REMARK    4  A    between atoms: _8  and  _9
REMARK    5  A    between atoms: _8  and  _11
REMARK    6  A    between atoms: _11  and  _12
REMARK    7  A    between atoms: _15  and  _17
REMARK    8  A    between atoms: _17  and  _18
REMARK    9  A    between atoms: _21  and  _23
REMARK   10  A    between atoms: _23  and  _24
REMARK   11  A    between atoms: _23  and  _26
REMARK   12  A    between atoms: _26  and  _27
REMARK   13  A    between atoms: _37  and  _39
REMARK   14  A    between atoms: _39  and  _40
REMARK   15  A    between atoms: _39  and  _42
REMARK   16  A    between atoms: _42  and  _43
REMARK   17  A    between atoms: _45  and  _47
REMARK   18  A    between atoms: _47  and  _48
REMARK   19  A    between atoms: _47  and  _50
REMARK   20  A    between atoms: _50  and  _51
REMARK   21  A    between atoms: _56  and  _57
REMARK   22  A    between atoms: _59  and  _61
REMARK   23  A    between atoms: _61  and  _62
REMARK   24  A    between atoms: _61  and  _64
REMARK   25  A    between atoms: _64  and  _65
REMARK   26  A    between atoms: _70  and  _71
REMARK   27  A    between atoms: _73  and  _75
REMARK   28  A    between atoms: _75  and  _76
REMARK   29  A    between atoms: _75  and  _78
REMARK   30  A    between atoms: _78  and  _79
REMARK   31  A    between atoms: _82  and  _84
REMARK   32  A    between atoms: _84  and  _85
REMARK   33  A    between atoms: _87  and  _89
REMARK   34  A    between atoms: _89  and  _90
REMARK   35  A    between atoms: _89  and  _92
REMARK   36  A    between atoms: _92  and  _93
REMARK   37  A    between atoms: _98  and  _99
REMARK   38  A    between atoms: _101  and  _103
REMARK   39  A    between atoms: _103  and  _104
REMARK   40  A    between atoms: _103  and  _106
REMARK   41  A    between atoms: _106  and  _107
REMARK   42  A    between atoms: _110  and  _112
REMARK   43  A    between atoms: _112  and  _113
REMARK   44  A    between atoms: _112  and  _115
REMARK   45  A    between atoms: _115  and  _116
REMARK   46  A    between atoms: _119  and  _121
REMARK   47  A    between atoms: _121  and  _122
REMARK   48  A    between atoms: _121  and  _124
REMARK   49  A    between atoms: _124  and  _125
REMARK   50  A    between atoms: _128  and  _130
REMARK   51  A    between atoms: _130  and  _131
REMARK   52  A    between atoms: _130  and  _133
REMARK   53  A    between atoms: _133  and  _134
REMARK   54  A    between atoms: _137  and  _139
REMARK   55  A    between atoms: _139  and  _140
REMARK   56  A    between atoms: _139  and  _142
REMARK   57  A    between atoms: _142  and  _143
REMARK   58  A    between atoms: _143  and  _144
REMARK   59  A    between atoms: _144  and  _145
REMARK   60  A    between atoms: _145  and  _146
REMARK   61  A    between atoms: _150  and  _152
REMARK   62  A    between atoms: _152  and  _153
REMARK   63  A    between atoms: _152  and  _155
REMARK   64  A    between atoms: _155  and  _156
REMARK   65  A    between atoms: _159  and  _161
REMARK   66  A    between atoms: _161  and  _162
REMARK   67  A    between atoms: _161  and  _164
REMARK   68  A    between atoms: _164  and  _165
REMARK   69  A    between atoms: _165  and  _166
REMARK   70  A    between atoms: _166  and  _167
REMARK   71  A    between atoms: _176  and  _178
REMARK   72  A    between atoms: _178  and  _179
REMARK   73  A    between atoms: _178  and  _181
REMARK   74  A    between atoms: _184  and  _186
REMARK   75  A    between atoms: _186  and  _187
REMARK   76  A    between atoms: _186  and  _189
REMARK   77  A    between atoms: _189  and  _190
REMARK   78  A    between atoms: _195  and  _196
REMARK   79  A    between atoms: _198  and  _200
REMARK   80  A    between atoms: _200  and  _201
REMARK   81  A    between atoms: _200  and  _203
REMARK   82  A    between atoms: _203  and  _204
REMARK   83  A    between atoms: _206  and  _208
REMARK   84  A    between atoms: _208  and  _209
REMARK   85  A    between atoms: _208  and  _211
REMARK   86  A    between atoms: _211  and  _212
REMARK   87  A    between atoms: _212  and  _213
REMARK   88  A    between atoms: _216  and  _218
REMARK   89  A    between atoms: _218  and  _219
REMARK   90  A    between atoms: _218  and  _221
REMARK   91  A    between atoms: _221  and  _222
REMARK   92  A    between atoms: _227  and  _228
REMARK   93  A    between atoms: _230  and  _232
REMARK   94  A    between atoms: _232  and  _233
REMARK   95  A    between atoms: _236  and  _238
REMARK   96  A    between atoms: _238  and  _239
REMARK   97  A    between atoms: _238  and  _241
REMARK   98  A    between atoms: _241  and  _242
REMARK   99  A    between atoms: _246  and  _247
REMARK  100  A    between atoms: _252  and  _254
REMARK  101  A    between atoms: _254  and  _255
REMARK  102  A    between atoms: _254  and  _257
REMARK  103  A    between atoms: _257  and  _258
REMARK  104  A    between atoms: _261  and  _263
REMARK  105  A    between atoms: _263  and  _264
REMARK  106  A    between atoms: _263  and  _266
REMARK  107  A    between atoms: _266  and  _267
REMARK  108  A    between atoms: _267  and  _268
REMARK  109  A    between atoms: _273  and  _275
REMARK  110  A    between atoms: _275  and  _276
REMARK  111  A    between atoms: _275  and  _278
REMARK  112  A    between atoms: _278  and  _279
REMARK  113  A    between atoms: _282  and  _284
REMARK  114  A    between atoms: _284  and  _285
REMARK  115  A    between atoms: _284  and  _287
REMARK  116  A    between atoms: _287  and  _288
REMARK  117  A    between atoms: _294  and  _296
REMARK  118  A    between atoms: _296  and  _297
REMARK  119  A    between atoms: _299  and  _301
REMARK  120  A    between atoms: _301  and  _302
REMARK  121  A    between atoms: _301  and  _304
REMARK  122  A    between atoms: _304  and  _305
REMARK  123  A    between atoms: _308  and  _310
REMARK  124  A    between atoms: _310  and  _311
REMARK  125  A    between atoms: _314  and  _316
REMARK  126  A    between atoms: _316  and  _317
REMARK  127  A    between atoms: _316  and  _319
REMARK  128  A    between atoms: _319  and  _320
REMARK  129  A    between atoms: _330  and  _332
REMARK  130  A    between atoms: _332  and  _333
REMARK  131  A    between atoms: _332  and  _335
REMARK  132  A    between atoms: _335  and  _336
REMARK  133  A    between atoms: _338  and  _340
REMARK  134  A    between atoms: _340  and  _341
REMARK  135  A    between atoms: _340  and  _343
REMARK  136  A    between atoms: _343  and  _344
REMARK  137  A    between atoms: _349  and  _350
REMARK  138  A    between atoms: _352  and  _354
REMARK  139  A    between atoms: _354  and  _355
REMARK  140  A    between atoms: _354  and  _357
REMARK  141  A    between atoms: _357  and  _358
REMARK  142  A    between atoms: _363  and  _364
REMARK  143  A    between atoms: _366  and  _368
REMARK  144  A    between atoms: _368  and  _369
REMARK  145  A    between atoms: _368  and  _371
REMARK  146  A    between atoms: _371  and  _372
REMARK  147  A    between atoms: _375  and  _377
REMARK  148  A    between atoms: _377  and  _378
REMARK  149  A    between atoms: _380  and  _382
REMARK  150  A    between atoms: _382  and  _383
REMARK  151  A    between atoms: _382  and  _385
REMARK  152  A    between atoms: _385  and  _386
REMARK  153  A    between atoms: _391  and  _392
REMARK  154  A    between atoms: _394  and  _396
REMARK  155  A    between atoms: _396  and  _397
REMARK  156  A    between atoms: _396  and  _399
REMARK  157  A    between atoms: _399  and  _400
REMARK  158  A    between atoms: _403  and  _405
REMARK  159  A    between atoms: _405  and  _406
REMARK  160  A    between atoms: _405  and  _408
REMARK  161  A    between atoms: _408  and  _409
REMARK  162  A    between atoms: _409  and  _410
REMARK  163  A    between atoms: _410  and  _411
REMARK  164  A    between atoms: _420  and  _422
REMARK  165  A    between atoms: _422  and  _423
REMARK  166  A    between atoms: _422  and  _425
REMARK  167  A    between atoms: _425  and  _426
REMARK  168  A    between atoms: _429  and  _431
REMARK  169  A    between atoms: _431  and  _432
REMARK  170  A    between atoms: _431  and  _434
REMARK  171  A    between atoms: _434  and  _435
REMARK  172  A    between atoms: _438  and  _440
REMARK  173  A    between atoms: _440  and  _441
REMARK  174  A    between atoms: _440  and  _443
REMARK  175  A    between atoms: _443  and  _444
REMARK  176  A    between atoms: _447  and  _449
REMARK  177  A    between atoms: _449  and  _450
REMARK  178  A    between atoms: _449  and  _452
REMARK  179  A    between atoms: _452  and  _453
REMARK  180  A    between atoms: _456  and  _458
REMARK  181  A    between atoms: _458  and  _459
REMARK  182  A    between atoms: _458  and  _461
REMARK  183  A    between atoms: _461  and  _462
REMARK  184  A    between atoms: _462  and  _463
REMARK  185  A    between atoms: _463  and  _464
REMARK  186  A    between atoms: _473  and  _475
REMARK  187  A    between atoms: _475  and  _476
REMARK  188  A    between atoms: _475  and  _478
REMARK  189  A    between atoms: _481  and  _483
REMARK  190  A    between atoms: _483  and  _484
REMARK  191  A    between atoms: _483  and  _486
REMARK  192  A    between atoms: _486  and  _487
REMARK  193  A    between atoms: _492  and  _493
REMARK  194  A    between atoms: _495  and  _497
REMARK  195  A    between atoms: _497  and  _498
REMARK  196  A    between atoms: _497  and  _500
REMARK  197  A    between atoms: _500  and  _501
REMARK  198  A    between atoms: _503  and  _505
REMARK  199  A    between atoms: _505  and  _506
REMARK  200  A    between atoms: _505  and  _508
REMARK  201  A    between atoms: _508  and  _509
REMARK  202  A    between atoms: _514  and  _516
REMARK  203  A    between atoms: _516  and  _517
REMARK  204  A    between atoms: _516  and  _519
REMARK  205  A    between atoms: _519  and  _520
REMARK  206  A    between atoms: _522  and  _524
REMARK  207  A    between atoms: _524  and  _525
REMARK  208  A    between atoms: _524  and  _527
REMARK  209  A    between atoms: _527  and  _528
REMARK  210  A    between atoms: _528  and  _529
REMARK  211  A    between atoms: _532  and  _534
REMARK  212  A    between atoms: _534  and  _535
REMARK  213  A    between atoms: _534  and  _537
REMARK  214  A    between atoms: _537  and  _538
REMARK  215  A    between atoms: _543  and  _544
REMARK  216  A    between atoms: _546  and  _548
REMARK  217  A    between atoms: _548  and  _549
REMARK  218  A    between atoms: _552  and  _554
REMARK  219  A    between atoms: _554  and  _555
REMARK  220  A    between atoms: _554  and  _557
REMARK  221  A    between atoms: _557  and  _558
REMARK  222  A    between atoms: _562  and  _563
REMARK  223  A    between atoms: _568  and  _570
REMARK  224  A    between atoms: _570  and  _571
REMARK  225  A    between atoms: _570  and  _573
REMARK  226  A    between atoms: _573  and  _574
REMARK  227  A    between atoms: _577  and  _579
REMARK  228  A    between atoms: _579  and  _580
REMARK  229  A    between atoms: _579  and  _582
REMARK  230  A    between atoms: _582  and  _583
REMARK  231  A    between atoms: _583  and  _584
REMARK  232  A    between atoms: _589  and  _591
REMARK  233  A    between atoms: _591  and  _592
REMARK  234  A    between atoms: _591  and  _594
REMARK  235  A    between atoms: _594  and  _595
REMARK  236  A    between atoms: _598  and  _600
REMARK  237  A    between atoms: _600  and  _601
REMARK  238  A    between atoms: _600  and  _603
REMARK  239  A    between atoms: _603  and  _604
REMARK  240  A    between atoms: _607  and  _609
REMARK  241  A    between atoms: _609  and  _610
REMARK  242  A    between atoms: _609  and  _612
REMARK  243  A    between atoms: _612  and  _613
REMARK                            x       y       z     vdW  Elec       q    Type
REMARK                         _______ _______ _______ _____ _____    ______ ____
ROOT
ATOM      1  O   HOH     1      27.053  33.535  13.364  0.00  0.00    +0.000 OA
ENDROOT
TORSDOF 0
REMARK  Name = ../refined-set-2016/4f5y/4f5y_pocket.pdb
REMARK  243 active torsions:
REMARK  status: ('A' for Active; 'I' for Inactive)
REMARK    1  A    between atoms: _1  and  _3
REMARK    2  A    between atoms: _3  and  _4
REMARK    3  A    between atoms: _6  and  _8
REMARK    4  A    between atoms: _8  and  _9
REMARK    5  A    between atoms: _8  and  _11
REMARK    6  A    between atoms: _11  and  _12
REMARK    7  A    between atoms: _15  and  _17
REMARK    8  A    between atoms: _17  and  _18
REMARK    9  A    between atoms: _21  and  _23
REMARK   10  A    between atoms: _23  and  _24
REMARK   11  A    between atoms: _23  and  _26
REMARK   12  A    between atoms: _26  and  _27
REMARK   13  A    between atoms: _37  and  _39
REMARK   14  A    between atoms: _39  and  _40
REMARK   15  A    between atoms: _39  and  _42
REMARK   16  A    between atoms: _42  and  _43
REMARK   17  A    between atoms: _45  and  _47
REMARK   18  A    between atoms: _47  and  _48
REMARK   19  A    between atoms: _47  and  _50
REMARK   20  A    between atoms: _50  and  _51
REMARK   21  A    between atoms: _56  and  _57
REMARK   22  A    between atoms: _59  and  _61
REMARK   23  A    between atoms: _61  and  _62
REMARK   24  A    between atoms: _61  and  _64
REMARK   25  A    between atoms: _64  and  _65
REMARK   26  A    between atoms: _70  and  _71
REMARK   27  A    between atoms: _73  and  _75
REMARK   28  A    between atoms: _75  and  _76
REMARK   29  A    between atoms: _75  and  _78
REMARK   30  A    between atoms: _78  and  _79
REMARK   31  A    between atoms: _82  and  _84
REMARK   32  A    between atoms: _84  and  _85
REMARK   33  A    between atoms: _87  and  _89
REMARK   34  A    between atoms: _89  and  _90
REMARK   35  A    between atoms: _89  and  _92
REMARK   36  A    between atoms: _92  and  _93
REMARK   37  A    between atoms: _98  and  _99
REMARK   38  A    between atoms: _101  and  _103
REMARK   39  A    between atoms: _103  and  _104
REMARK   40  A    between atoms: _103  and  _106
REMARK   41  A    between atoms: _106  and  _107
REMARK   42  A    between atoms: _110  and  _112
REMARK   43  A    between atoms: _112  and  _113
REMARK   44  A    between atoms: _112  and  _115
REMARK   45  A    between atoms: _115  and  _116
REMARK   46  A    between atoms: _119  and  _121
REMARK   47  A    between atoms: _121  and  _122
REMARK   48  A    between atoms: _121  and  _124
REMARK   49  A    between atoms: _124  and  _125
REMARK   50  A    between atoms: _128  and  _130
REMARK   51  A    between atoms: _130  and  _131
REMARK   52  A    between atoms: _130  and  _133
REMARK   53  A    between atoms: _133  and  _134
REMARK   54  A    between atoms: _137  and  _139
REMARK   55  A    between atoms: _139  and  _140
REMARK   56  A    between atoms: _139  and  _142
REMARK   57  A    between atoms: _142  and  _143
REMARK   58  A    between atoms: _143  and  _144
REMARK   59  A    between atoms: _144  and  _145
REMARK   60  A    between atoms: _145  and  _146
REMARK   61  A    between atoms: _150  and  _152
REMARK   62  A    between atoms: _152  and  _153
REMARK   63  A    between atoms: _152  and  _155
REMARK   64  A    between atoms: _155  and  _156
REMARK   65  A    between atoms: _159  and  _161
REMARK   66  A    between atoms: _161  and  _162
REMARK   67  A    between atoms: _161  and  _164
REMARK   68  A    between atoms: _164  and  _165
REMARK   69  A    between atoms: _165  and  _166
REMARK   70  A    between atoms: _166  and  _167
REMARK   71  A    between atoms: _176  and  _178
REMARK   72  A    between atoms: _178  and  _179
REMARK   73  A    between atoms: _178  and  _181
REMARK   74  A    between atoms: _184  and  _186
REMARK   75  A    between atoms: _186  and  _187
REMARK   76  A    between atoms: _186  and  _189
REMARK   77  A    between atoms: _189  and  _190
REMARK   78  A    between atoms: _195  and  _196
REMARK   79  A    between atoms: _198  and  _200
REMARK   80  A    between atoms: _200  and  _201
REMARK   81  A    between atoms: _200  and  _203
REMARK   82  A    between atoms: _203  and  _204
REMARK   83  A    between atoms: _206  and  _208
REMARK   84  A    between atoms: _208  and  _209
REMARK   85  A    between atoms: _208  and  _211
REMARK   86  A    between atoms: _211  and  _212
REMARK   87  A    between atoms: _212  and  _213
REMARK   88  A    between atoms: _216  and  _218
REMARK   89  A    between atoms: _218  and  _219
REMARK   90  A    between atoms: _218  and  _221
REMARK   91  A    between atoms: _221  and  _222
REMARK   92  A    between atoms: _227  and  _228
REMARK   93  A    between atoms: _230  and  _232
REMARK   94  A    between atoms: _232  and  _233
REMARK   95  A    between atoms: _236  and  _238
REMARK   96  A    between atoms: _238  and  _239
REMARK   97  A    between atoms: _238  and  _241
REMARK   98  A    between atoms: _241  and  _242
REMARK   99  A    between atoms: _246  and  _247
REMARK  100  A    between atoms: _252  and  _254
REMARK  101  A    between atoms: _254  and  _255
REMARK  102  A    between atoms: _254  and  _257
REMARK  103  A    between atoms: _257  and  _258
REMARK  104  A    between atoms: _261  and  _263
REMARK  105  A    between atoms: _263  and  _264
REMARK  106  A    between atoms: _263  and  _266
REMARK  107  A    between atoms: _266  and  _267
REMARK  108  A    between atoms: _267  and  _268
REMARK  109  A    between atoms: _273  and  _275
REMARK  110  A    between atoms: _275  and  _276
REMARK  111  A    between atoms: _275  and  _278
REMARK  112  A    between atoms: _278  and  _279
REMARK  113  A    between atoms: _282  and  _284
REMARK  114  A    between atoms: _284  and  _285
REMARK  115  A    between atoms: _284  and  _287
REMARK  116  A    between atoms: _287  and  _288
REMARK  117  A    between atoms: _294  and  _296
REMARK  118  A    between atoms: _296  and  _297
REMARK  119  A    between atoms: _299  and  _301
REMARK  120  A    between atoms: _301  and  _302
REMARK  121  A    between atoms: _301  and  _304
REMARK  122  A    between atoms: _304  and  _305
REMARK  123  A    between atoms: _308  and  _310
REMARK  124  A    between atoms: _310  and  _311
REMARK  125  A    between atoms: _314  and  _316
REMARK  126  A    between atoms: _316  and  _317
REMARK  127  A    between atoms: _316  and  _319
REMARK  128  A    between atoms: _319  and  _320
REMARK  129  A    between atoms: _330  and  _332
REMARK  130  A    between atoms: _332  and  _333
REMARK  131  A    between atoms: _332  and  _335
REMARK  132  A    between atoms: _335  and  _336
REMARK  133  A    between atoms: _338  and  _340
REMARK  134  A    between atoms: _340  and  _341
REMARK  135  A    between atoms: _340  and  _343
REMARK  136  A    between atoms: _343  and  _344
REMARK  137  A    between atoms: _349  and  _350
REMARK  138  A    between atoms: _352  and  _354
REMARK  139  A    between atoms: _354  and  _355
REMARK  140  A    between atoms: _354  and  _357
REMARK  141  A    between atoms: _357  and  _358
REMARK  142  A    between atoms: _363  and  _364
REMARK  143  A    between atoms: _366  and  _368
REMARK  144  A    between atoms: _368  and  _369
REMARK  145  A    between atoms: _368  and  _371
REMARK  146  A    between atoms: _371  and  _372
REMARK  147  A    between atoms: _375  and  _377
REMARK  148  A    between atoms: _377  and  _378
REMARK  149  A    between atoms: _380  and  _382
REMARK  150  A    between atoms: _382  and  _383
REMARK  151  A    between atoms: _382  and  _385
REMARK  152  A    between atoms: _385  and  _386
REMARK  153  A    between atoms: _391  and  _392
REMARK  154  A    between atoms: _394  and  _396
REMARK  155  A    between atoms: _396  and  _397
REMARK  156  A    between atoms: _396  and  _399
REMARK  157  A    between atoms: _399  and  _400
REMARK  158  A    between atoms: _403  and  _405
REMARK  159  A    between atoms: _405  and  _406
REMARK  160  A    between atoms: _405  and  _408
REMARK  161  A    between atoms: _408  and  _409
REMARK  162  A    between atoms: _409  and  _410
REMARK  163  A    between atoms: _410  and  _411
REMARK  164  A    between atoms: _420  and  _422
REMARK  165  A    between atoms: _422  and  _423
REMARK  166  A    between atoms: _422  and  _425
REMARK  167  A    between atoms: _425  and  _426
REMARK  168  A    between atoms: _429  and  _431
REMARK  169  A    between atoms: _431  and  _432
REMARK  170  A    between atoms: _431  and  _434
REMARK  171  A    between atoms: _434  and  _435
REMARK  172  A    between atoms: _438  and  _440
REMARK  173  A    between atoms: _440  and  _441
REMARK  174  A    between atoms: _440  and  _443
REMARK  175  A    between atoms: _443  and  _444
REMARK  176  A    between atoms: _447  and  _449
REMARK  177  A    between atoms: _449  and  _450
REMARK  178  A    between atoms: _449  and  _452
REMARK  179  A    between atoms: _452  and  _453
REMARK  180  A    between atoms: _456  and  _458
REMARK  181  A    between atoms: _458  and  _459
REMARK  182  A    between atoms: _458  and  _461
REMARK  183  A    between atoms: _461  and  _462
REMARK  184  A    between atoms: _462  and  _463
REMARK  185  A    between atoms: _463  and  _464
REMARK  186  A    between atoms: _473  and  _475
REMARK  187  A    between atoms: _475  and  _476
REMARK  188  A    between atoms: _475  and  _478
REMARK  189  A    between atoms: _481  and  _483
REMARK  190  A    between atoms: _483  and  _484
REMARK  191  A    between atoms: _483  and  _486
REMARK  192  A    between atoms: _486  and  _487
REMARK  193  A    between atoms: _492  and  _493
REMARK  194  A    between atoms: _495  and  _497
REMARK  195  A    between atoms: _497  and  _498
REMARK  196  A    between atoms: _497  and  _500
REMARK  197  A    between atoms: _500  and  _501
REMARK  198  A    between atoms: _503  and  _505
REMARK  199  A    between atoms: _505  and  _506
REMARK  200  A    between atoms: _505  and  _508
REMARK  201  A    between atoms: _508  and  _509
REMARK  202  A    between atoms: _514  and  _516
REMARK  203  A    between atoms: _516  and  _517
REMARK  204  A    between atoms: _516  and  _519
REMARK  205  A    between atoms: _519  and  _520
REMARK  206  A    between atoms: _522  and  _524
REMARK  207  A    between atoms: _524  and  _525
REMARK  208  A    between atoms: _524  and  _527
REMARK  209  A    between atoms: _527  and  _528
REMARK  210  A    between atoms: _528  and  _529
REMARK  211  A    between atoms: _532  and  _534
REMARK  212  A    between atoms: _534  and  _535
REMARK  213  A    between atoms: _534  and  _537
REMARK  214  A    between atoms: _537  and  _538
REMARK  215  A    between atoms: _543  and  _544
REMARK  216  A    between atoms: _546  and  _548
REMARK  217  A    between atoms: _548  and  _549
REMARK  218  A    between atoms: _552  and  _554
REMARK  219  A    between atoms: _554  and  _555
REMARK  220  A    between atoms: _554  and  _557
REMARK  221  A    between atoms: _557  and  _558
REMARK  222  A    between atoms: _562  and  _563
REMARK  223  A    between atoms: _568  and  _570
REMARK  224  A    between atoms: _570  and  _571
REMARK  225  A    between atoms: _570  and  _573
REMARK  226  A    between atoms: _573  and  _574
REMARK  227  A    between atoms: _577  and  _579
REMARK  228  A    between atoms: _579  and  _580
REMARK  229  A    between atoms: _579  and  _582
REMARK  230  A    between atoms: _582  and  _583
REMARK  231  A    between atoms: _583  and  _584
REMARK  232  A    between atoms: _589  and  _591
REMARK  233  A    between atoms: _591  and  _592
REMARK  234  A    between atoms: _591  and  _594
REMARK  235  A    between atoms: _594  and  _595
REMARK  236  A    between atoms: _598  and  _600
REMARK  237  A    between atoms: _600  and  _601
REMARK  238  A    between atoms: _600  and  _603
REMARK  239  A    between atoms: _603  and  _604
REMARK  240  A    between atoms: _607  and  _609
REMARK  241  A    between atoms: _609  and  _610
REMARK  242  A    between atoms: _609  and  _612
REMARK  243  A    between atoms: _612  and  _613
REMARK                            x       y       z     vdW  Elec       q    Type
REMARK                         _______ _______ _______ _____ _____    ______ ____
ROOT
ATOM      1  O   HOH     1      24.828  28.101  14.219  0.00  0.00    +0.000 OA
ENDROOT
TORSDOF 0
REMARK  Name = ../refined-set-2016/4f5y/4f5y_pocket.pdb
REMARK  243 active torsions:
REMARK  status: ('A' for Active; 'I' for Inactive)
REMARK    1  A    between atoms: _1  and  _3
REMARK    2  A    between atoms: _3  and  _4
REMARK    3  A    between atoms: _6  and  _8
REMARK    4  A    between atoms: _8  and  _9
REMARK    5  A    between atoms: _8  and  _11
REMARK    6  A    between atoms: _11  and  _12
REMARK    7  A    between atoms: _15  and  _17
REMARK    8  A    between atoms: _17  and  _18
REMARK    9  A    between atoms: _21  and  _23
REMARK   10  A    between atoms: _23  and  _24
REMARK   11  A    between atoms: _23  and  _26
REMARK   12  A    between atoms: _26  and  _27
REMARK   13  A    between atoms: _37  and  _39
REMARK   14  A    between atoms: _39  and  _40
REMARK   15  A    between atoms: _39  and  _42
REMARK   16  A    between atoms: _42  and  _43
REMARK   17  A    between atoms: _45  and  _47
REMARK   18  A    between atoms: _47  and  _48
REMARK   19  A    between atoms: _47  and  _50
REMARK   20  A    between atoms: _50  and  _51
REMARK   21  A    between atoms: _56  and  _57
REMARK   22  A    between atoms: _59  and  _61
REMARK   23  A    between atoms: _61  and  _62
REMARK   24  A    between atoms: _61  and  _64
REMARK   25  A    between atoms: _64  and  _65
REMARK   26  A    between atoms: _70  and  _71
REMARK   27  A    between atoms: _73  and  _75
REMARK   28  A    between atoms: _75  and  _76
REMARK   29  A    between atoms: _75  and  _78
REMARK   30  A    between atoms: _78  and  _79
REMARK   31  A    between atoms: _82  and  _84
REMARK   32  A    between atoms: _84  and  _85
REMARK   33  A    between atoms: _87  and  _89
REMARK   34  A    between atoms: _89  and  _90
REMARK   35  A    between atoms: _89  and  _92
REMARK   36  A    between atoms: _92  and  _93
REMARK   37  A    between atoms: _98  and  _99
REMARK   38  A    between atoms: _101  and  _103
REMARK   39  A    between atoms: _103  and  _104
REMARK   40  A    between atoms: _103  and  _106
REMARK   41  A    between atoms: _106  and  _107
REMARK   42  A    between atoms: _110  and  _112
REMARK   43  A    between atoms: _112  and  _113
REMARK   44  A    between atoms: _112  and  _115
REMARK   45  A    between atoms: _115  and  _116
REMARK   46  A    between atoms: _119  and  _121
REMARK   47  A    between atoms: _121  and  _122
REMARK   48  A    between atoms: _121  and  _124
REMARK   49  A    between atoms: _124  and  _125
REMARK   50  A    between atoms: _128  and  _130
REMARK   51  A    between atoms: _130  and  _131
REMARK   52  A    between atoms: _130  and  _133
REMARK   53  A    between atoms: _133  and  _134
REMARK   54  A    between atoms: _137  and  _139
REMARK   55  A    between atoms: _139  and  _140
REMARK   56  A    between atoms: _139  and  _142
REMARK   57  A    between atoms: _142  and  _143
REMARK   58  A    between atoms: _143  and  _144
REMARK   59  A    between atoms: _144  and  _145
REMARK   60  A    between atoms: _145  and  _146
REMARK   61  A    between atoms: _150  and  _152
REMARK   62  A    between atoms: _152  and  _153
REMARK   63  A    between atoms: _152  and  _155
REMARK   64  A    between atoms: _155  and  _156
REMARK   65  A    between atoms: _159  and  _161
REMARK   66  A    between atoms: _161  and  _162
REMARK   67  A    between atoms: _161  and  _164
REMARK   68  A    between atoms: _164  and  _165
REMARK   69  A    between atoms: _165  and  _166
REMARK   70  A    between atoms: _166  and  _167
REMARK   71  A    between atoms: _176  and  _178
REMARK   72  A    between atoms: _178  and  _179
REMARK   73  A    between atoms: _178  and  _181
REMARK   74  A    between atoms: _184  and  _186
REMARK   75  A    between atoms: _186  and  _187
REMARK   76  A    between atoms: _186  and  _189
REMARK   77  A    between atoms: _189  and  _190
REMARK   78  A    between atoms: _195  and  _196
REMARK   79  A    between atoms: _198  and  _200
REMARK   80  A    between atoms: _200  and  _201
REMARK   81  A    between atoms: _200  and  _203
REMARK   82  A    between atoms: _203  and  _204
REMARK   83  A    between atoms: _206  and  _208
REMARK   84  A    between atoms: _208  and  _209
REMARK   85  A    between atoms: _208  and  _211
REMARK   86  A    between atoms: _211  and  _212
REMARK   87  A    between atoms: _212  and  _213
REMARK   88  A    between atoms: _216  and  _218
REMARK   89  A    between atoms: _218  and  _219
REMARK   90  A    between atoms: _218  and  _221
REMARK   91  A    between atoms: _221  and  _222
REMARK   92  A    between atoms: _227  and  _228
REMARK   93  A    between atoms: _230  and  _232
REMARK   94  A    between atoms: _232  and  _233
REMARK   95  A    between atoms: _236  and  _238
REMARK   96  A    between atoms: _238  and  _239
REMARK   97  A    between atoms: _238  and  _241
REMARK   98  A    between atoms: _241  and  _242
REMARK   99  A    between atoms: _246  and  _247
REMARK  100  A    between atoms: _252  and  _254
REMARK  101  A    between atoms: _254  and  _255
REMARK  102  A    between atoms: _254  and  _257
REMARK  103  A    between atoms: _257  and  _258
REMARK  104  A    between atoms: _261  and  _263
REMARK  105  A    between atoms: _263  and  _264
REMARK  106  A    between atoms: _263  and  _266
REMARK  107  A    between atoms: _266  and  _267
REMARK  108  A    between atoms: _267  and  _268
REMARK  109  A    between atoms: _273  and  _275
REMARK  110  A    between atoms: _275  and  _276
REMARK  111  A    between atoms: _275  and  _278
REMARK  112  A    between atoms: _278  and  _279
REMARK  113  A    between atoms: _282  and  _284
REMARK  114  A    between atoms: _284  and  _285
REMARK  115  A    between atoms: _284  and  _287
REMARK  116  A    between atoms: _287  and  _288
REMARK  117  A    between atoms: _294  and  _296
REMARK  118  A    between atoms: _296  and  _297
REMARK  119  A    between atoms: _299  and  _301
REMARK  120  A    between atoms: _301  and  _302
REMARK  121  A    between atoms: _301  and  _304
REMARK  122  A    between atoms: _304  and  _305
REMARK  123  A    between atoms: _308  and  _310
REMARK  124  A    between atoms: _310  and  _311
REMARK  125  A    between atoms: _314  and  _316
REMARK  126  A    between atoms: _316  and  _317
REMARK  127  A    between atoms: _316  and  _319
REMARK  128  A    between atoms: _319  and  _320
REMARK  129  A    between atoms: _330  and  _332
REMARK  130  A    between atoms: _332  and  _333
REMARK  131  A    between atoms: _332  and  _335
REMARK  132  A    between atoms: _335  and  _336
REMARK  133  A    between atoms: _338  and  _340
REMARK  134  A    between atoms: _340  and  _341
REMARK  135  A    between atoms: _340  and  _343
REMARK  136  A    between atoms: _343  and  _344
REMARK  137  A    between atoms: _349  and  _350
REMARK  138  A    between atoms: _352  and  _354
REMARK  139  A    between atoms: _354  and  _355
REMARK  140  A    between atoms: _354  and  _357
REMARK  141  A    between atoms: _357  and  _358
REMARK  142  A    between atoms: _363  and  _364
REMARK  143  A    between atoms: _366  and  _368
REMARK  144  A    between atoms: _368  and  _369
REMARK  145  A    between atoms: _368  and  _371
REMARK  146  A    between atoms: _371  and  _372
REMARK  147  A    between atoms: _375  and  _377
REMARK  148  A    between atoms: _377  and  _378
REMARK  149  A    between atoms: _380  and  _382
REMARK  150  A    between atoms: _382  and  _383
REMARK  151  A    between atoms: _382  and  _385
REMARK  152  A    between atoms: _385  and  _386
REMARK  153  A    between atoms: _391  and  _392
REMARK  154  A    between atoms: _394  and  _396
REMARK  155  A    between atoms: _396  and  _397
REMARK  156  A    between atoms: _396  and  _399
REMARK  157  A    between atoms: _399  and  _400
REMARK  158  A    between atoms: _403  and  _405
REMARK  159  A    between atoms: _405  and  _406
REMARK  160  A    between atoms: _405  and  _408
REMARK  161  A    between atoms: _408  and  _409
REMARK  162  A    between atoms: _409  and  _410
REMARK  163  A    between atoms: _410  and  _411
REMARK  164  A    between atoms: _420  and  _422
REMARK  165  A    between atoms: _422  and  _423
REMARK  166  A    between atoms: _422  and  _425
REMARK  167  A    between atoms: _425  and  _426
REMARK  168  A    between atoms: _429  and  _431
REMARK  169  A    between atoms: _431  and  _432
REMARK  170  A    between atoms: _431  and  _434
REMARK  171  A    between atoms: _434  and  _435
REMARK  172  A    between atoms: _438  and  _440
REMARK  173  A    between atoms: _440  and  _441
REMARK  174  A    between atoms: _440  and  _443
REMARK  175  A    between atoms: _443  and  _444
REMARK  176  A    between atoms: _447  and  _449
REMARK  177  A    between atoms: _449  and  _450
REMARK  178  A    between atoms: _449  and  _452
REMARK  179  A    between atoms: _452  and  _453
REMARK  180  A    between atoms: _456  and  _458
REMARK  181  A    between atoms: _458  and  _459
REMARK  182  A    between atoms: _458  and  _461
REMARK  183  A    between atoms: _461  and  _462
REMARK  184  A    between atoms: _462  and  _463
REMARK  185  A    between atoms: _463  and  _464
REMARK  186  A    between atoms: _473  and  _475
REMARK  187  A    between atoms: _475  and  _476
REMARK  188  A    between atoms: _475  and  _478
REMARK  189  A    between atoms: _481  and  _483
REMARK  190  A    between atoms: _483  and  _484
REMARK  191  A    between atoms: _483  and  _486
REMARK  192  A    between atoms: _486  and  _487
REMARK  193  A    between atoms: _492  and  _493
REMARK  194  A    between atoms: _495  and  _497
REMARK  195  A    between atoms: _497  and  _498
REMARK  196  A    between atoms: _497  and  _500
REMARK  197  A    between atoms: _500  and  _501
REMARK  198  A    between atoms: _503  and  _505
REMARK  199  A    between atoms: _505  and  _506
REMARK  200  A    between atoms: _505  and  _508
REMARK  201  A    between atoms: _508  and  _509
REMARK  202  A    between atoms: _514  and  _516
REMARK  203  A    between atoms: _516  and  _517
REMARK  204  A    between atoms: _516  and  _519
REMARK  205  A    between atoms: _519  and  _520
REMARK  206  A    between atoms: _522  and  _524
REMARK  207  A    between atoms: _524  and  _525
REMARK  208  A    between atoms: _524  and  _527
REMARK  209  A    between atoms: _527  and  _528
REMARK  210  A    between atoms: _528  and  _529
REMARK  211  A    between atoms: _532  and  _534
REMARK  212  A    between atoms: _534  and  _535
REMARK  213  A    between atoms: _534  and  _537
REMARK  214  A    between atoms: _537  and  _538
REMARK  215  A    between atoms: _543  and  _544
REMARK  216  A    between atoms: _546  and  _548
REMARK  217  A    between atoms: _548  and  _549
REMARK  218  A    between atoms: _552  and  _554
REMARK  219  A    between atoms: _554  and  _555
REMARK  220  A    between atoms: _554  and  _557
REMARK  221  A    between atoms: _557  and  _558
REMARK  222  A    between atoms: _562  and  _563
REMARK  223  A    between atoms: _568  and  _570
REMARK  224  A    between atoms: _570  and  _571
REMARK  225  A    between atoms: _570  and  _573
REMARK  226  A    between atoms: _573  and  _574
REMARK  227  A    between atoms: _577  and  _579
REMARK  228  A    between atoms: _579  and  _580
REMARK  229  A    between atoms: _579  and  _582
REMARK  230  A    between atoms: _582  and  _583
REMARK  231  A    between atoms: _583  and  _584
REMARK  232  A    between atoms: _589  and  _591
REMARK  233  A    between atoms: _591  and  _592
REMARK  234  A    between atoms: _591  and  _594
REMARK  235  A    between atoms: _594  and  _595
REMARK  236  A    between atoms: _598  and  _600
REMARK  237  A    between atoms: _600  and  _601
REMARK  238  A    between atoms: _600  and  _603
REMARK  239  A    between atoms: _603  and  _604
REMARK  240  A    between atoms: _607  and  _609
REMARK  241  A    between atoms: _609  and  _610
REMARK  242  A    between atoms: _609  and  _612
REMARK  243  A    between atoms: _612  and  _613
REMARK                            x       y       z     vdW  Elec       q    Type
REMARK                         _______ _______ _______ _____ _____    ______ ____
ROOT
ATOM      1  O   HOH     1      24.361  31.255  13.361  0.00  0.00    +0.000 OA
ENDROOT
TORSDOF 0
REMARK  Name = ../refined-set-2016/4f5y/4f5y_pocket.pdb
REMARK  243 active torsions:
REMARK  status: ('A' for Active; 'I' for Inactive)
REMARK    1  A    between atoms: _1  and  _3
REMARK    2  A    between atoms: _3  and  _4
REMARK    3  A    between atoms: _6  and  _8
REMARK    4  A    between atoms: _8  and  _9
REMARK    5  A    between atoms: _8  and  _11
REMARK    6  A    between atoms: _11  and  _12
REMARK    7  A    between atoms: _15  and  _17
REMARK    8  A    between atoms: _17  and  _18
REMARK    9  A    between atoms: _21  and  _23
REMARK   10  A    between atoms: _23  and  _24
REMARK   11  A    between atoms: _23  and  _26
REMARK   12  A    between atoms: _26  and  _27
REMARK   13  A    between atoms: _37  and  _39
REMARK   14  A    between atoms: _39  and  _40
REMARK   15  A    between atoms: _39  and  _42
REMARK   16  A    between atoms: _42  and  _43
REMARK   17  A    between atoms: _45  and  _47
REMARK   18  A    between atoms: _47  and  _48
REMARK   19  A    between atoms: _47  and  _50
REMARK   20  A    between atoms: _50  and  _51
REMARK   21  A    between atoms: _56  and  _57
REMARK   22  A    between atoms: _59  and  _61
REMARK   23  A    between atoms: _61  and  _62
REMARK   24  A    between atoms: _61  and  _64
REMARK   25  A    between atoms: _64  and  _65
REMARK   26  A    between atoms: _70  and  _71
REMARK   27  A    between atoms: _73  and  _75
REMARK   28  A    between atoms: _75  and  _76
REMARK   29  A    between atoms: _75  and  _78
REMARK   30  A    between atoms: _78  and  _79
REMARK   31  A    between atoms: _82  and  _84
REMARK   32  A    between atoms: _84  and  _85
REMARK   33  A    between atoms: _87  and  _89
REMARK   34  A    between atoms: _89  and  _90
REMARK   35  A    between atoms: _89  and  _92
REMARK   36  A    between atoms: _92  and  _93
REMARK   37  A    between atoms: _98  and  _99
REMARK   38  A    between atoms: _101  and  _103
REMARK   39  A    between atoms: _103  and  _104
REMARK   40  A    between atoms: _103  and  _106
REMARK   41  A    between atoms: _106  and  _107
REMARK   42  A    between atoms: _110  and  _112
REMARK   43  A    between atoms: _112  and  _113
REMARK   44  A    between atoms: _112  and  _115
REMARK   45  A    between atoms: _115  and  _116
REMARK   46  A    between atoms: _119  and  _121
REMARK   47  A    between atoms: _121  and  _122
REMARK   48  A    between atoms: _121  and  _124
REMARK   49  A    between atoms: _124  and  _125
REMARK   50  A    between atoms: _128  and  _130
REMARK   51  A    between atoms: _130  and  _131
REMARK   52  A    between atoms: _130  and  _133
REMARK   53  A    between atoms: _133  and  _134
REMARK   54  A    between atoms: _137  and  _139
REMARK   55  A    between atoms: _139  and  _140
REMARK   56  A    between atoms: _139  and  _142
REMARK   57  A    between atoms: _142  and  _143
REMARK   58  A    between atoms: _143  and  _144
REMARK   59  A    between atoms: _144  and  _145
REMARK   60  A    between atoms: _145  and  _146
REMARK   61  A    between atoms: _150  and  _152
REMARK   62  A    between atoms: _152  and  _153
REMARK   63  A    between atoms: _152  and  _155
REMARK   64  A    between atoms: _155  and  _156
REMARK   65  A    between atoms: _159  and  _161
REMARK   66  A    between atoms: _161  and  _162
REMARK   67  A    between atoms: _161  and  _164
REMARK   68  A    between atoms: _164  and  _165
REMARK   69  A    between atoms: _165  and  _166
REMARK   70  A    between atoms: _166  and  _167
REMARK   71  A    between atoms: _176  and  _178
REMARK   72  A    between atoms: _178  and  _179
REMARK   73  A    between atoms: _178  and  _181
REMARK   74  A    between atoms: _184  and  _186
REMARK   75  A    between atoms: _186  and  _187
REMARK   76  A    between atoms: _186  and  _189
REMARK   77  A    between atoms: _189  and  _190
REMARK   78  A    between atoms: _195  and  _196
REMARK   79  A    between atoms: _198  and  _200
REMARK   80  A    between atoms: _200  and  _201
REMARK   81  A    between atoms: _200  and  _203
REMARK   82  A    between atoms: _203  and  _204
REMARK   83  A    between atoms: _206  and  _208
REMARK   84  A    between atoms: _208  and  _209
REMARK   85  A    between atoms: _208  and  _211
REMARK   86  A    between atoms: _211  and  _212
REMARK   87  A    between atoms: _212  and  _213
REMARK   88  A    between atoms: _216  and  _218
REMARK   89  A    between atoms: _218  and  _219
REMARK   90  A    between atoms: _218  and  _221
REMARK   91  A    between atoms: _221  and  _222
REMARK   92  A    between atoms: _227  and  _228
REMARK   93  A    between atoms: _230  and  _232
REMARK   94  A    between atoms: _232  and  _233
REMARK   95  A    between atoms: _236  and  _238
REMARK   96  A    between atoms: _238  and  _239
REMARK   97  A    between atoms: _238  and  _241
REMARK   98  A    between atoms: _241  and  _242
REMARK   99  A    between atoms: _246  and  _247
REMARK  100  A    between atoms: _252  and  _254
REMARK  101  A    between atoms: _254  and  _255
REMARK  102  A    between atoms: _254  and  _257
REMARK  103  A    between atoms: _257  and  _258
REMARK  104  A    between atoms: _261  and  _263
REMARK  105  A    between atoms: _263  and  _264
REMARK  106  A    between atoms: _263  and  _266
REMARK  107  A    between atoms: _266  and  _267
REMARK  108  A    between atoms: _267  and  _268
REMARK  109  A    between atoms: _273  and  _275
REMARK  110  A    between atoms: _275  and  _276
REMARK  111  A    between atoms: _275  and  _278
REMARK  112  A    between atoms: _278  and  _279
REMARK  113  A    between atoms: _282  and  _284
REMARK  114  A    between atoms: _284  and  _285
REMARK  115  A    between atoms: _284  and  _287
REMARK  116  A    between atoms: _287  and  _288
REMARK  117  A    between atoms: _294  and  _296
REMARK  118  A    between atoms: _296  and  _297
REMARK  119  A    between atoms: _299  and  _301
REMARK  120  A    between atoms: _301  and  _302
REMARK  121  A    between atoms: _301  and  _304
REMARK  122  A    between atoms: _304  and  _305
REMARK  123  A    between atoms: _308  and  _310
REMARK  124  A    between atoms: _310  and  _311
REMARK  125  A    between atoms: _314  and  _316
REMARK  126  A    between atoms: _316  and  _317
REMARK  127  A    between atoms: _316  and  _319
REMARK  128  A    between atoms: _319  and  _320
REMARK  129  A    between atoms: _330  and  _332
REMARK  130  A    between atoms: _332  and  _333
REMARK  131  A    between atoms: _332  and  _335
REMARK  132  A    between atoms: _335  and  _336
REMARK  133  A    between atoms: _338  and  _340
REMARK  134  A    between atoms: _340  and  _341
REMARK  135  A    between atoms: _340  and  _343
REMARK  136  A    between atoms: _343  and  _344
REMARK  137  A    between atoms: _349  and  _350
REMARK  138  A    between atoms: _352  and  _354
REMARK  139  A    between atoms: _354  and  _355
REMARK  140  A    between atoms: _354  and  _357
REMARK  141  A    between atoms: _357  and  _358
REMARK  142  A    between atoms: _363  and  _364
REMARK  143  A    between atoms: _366  and  _368
REMARK  144  A    between atoms: _368  and  _369
REMARK  145  A    between atoms: _368  and  _371
REMARK  146  A    between atoms: _371  and  _372
REMARK  147  A    between atoms: _375  and  _377
REMARK  148  A    between atoms: _377  and  _378
REMARK  149  A    between atoms: _380  and  _382
REMARK  150  A    between atoms: _382  and  _383
REMARK  151  A    between atoms: _382  and  _385
REMARK  152  A    between atoms: _385  and  _386
REMARK  153  A    between atoms: _391  and  _392
REMARK  154  A    between atoms: _394  and  _396
REMARK  155  A    between atoms: _396  and  _397
REMARK  156  A    between atoms: _396  and  _399
REMARK  157  A    between atoms: _399  and  _400
REMARK  158  A    between atoms: _403  and  _405
REMARK  159  A    between atoms: _405  and  _406
REMARK  160  A    between atoms: _405  and  _408
REMARK  161  A    between atoms: _408  and  _409
REMARK  162  A    between atoms: _409  and  _410
REMARK  163  A    between atoms: _410  and  _411
REMARK  164  A    between atoms: _420  and  _422
REMARK  165  A    between atoms: _422  and  _423
REMARK  166  A    between atoms: _422  and  _425
REMARK  167  A    between atoms: _425  and  _426
REMARK  168  A    between atoms: _429  and  _431
REMARK  169  A    between atoms: _431  and  _432
REMARK  170  A    between atoms: _431  and  _434
REMARK  171  A    between atoms: _434  and  _435
REMARK  172  A    between atoms: _438  and  _440
REMARK  173  A    between atoms: _440  and  _441
REMARK  174  A    between atoms: _440  and  _443
REMARK  175  A    between atoms: _443  and  _444
REMARK  176  A    between atoms: _447  and  _449
REMARK  177  A    between atoms: _449  and  _450
REMARK  178  A    between atoms: _449  and  _452
REMARK  179  A    between atoms: _452  and  _453
REMARK  180  A    between atoms: _456  and  _458
REMARK  181  A    between atoms: _458  and  _459
REMARK  182  A    between atoms: _458  and  _461
REMARK  183  A    between atoms: _461  and  _462
REMARK  184  A    between atoms: _462  and  _463
REMARK  185  A    between atoms: _463  and  _464
REMARK  186  A    between atoms: _473  and  _475
REMARK  187  A    between atoms: _475  and  _476
REMARK  188  A    between atoms: _475  and  _478
REMARK  189  A    between atoms: _481  and  _483
REMARK  190  A    between atoms: _483  and  _484
REMARK  191  A    between atoms: _483  and  _486
REMARK  192  A    between atoms: _486  and  _487
REMARK  193  A    between atoms: _492  and  _493
REMARK  194  A    between atoms: _495  and  _497
REMARK  195  A    between atoms: _497  and  _498
REMARK  196  A    between atoms: _497  and  _500
REMARK  197  A    between atoms: _500  and  _501
REMARK  198  A    between atoms: _503  and  _505
REMARK  199  A    between atoms: _505  and  _506
REMARK  200  A    between atoms: _505  and  _508
REMARK  201  A    between atoms: _508  and  _509
REMARK  202  A    between atoms: _514  and  _516
REMARK  203  A    between atoms: _516  and  _517
REMARK  204  A    between atoms: _516  and  _519
REMARK  205  A    between atoms: _519  and  _520
REMARK  206  A    between atoms: _522  and  _524
REMARK  207  A    between atoms: _524  and  _525
REMARK  208  A    between atoms: _524  and  _527
REMARK  209  A    between atoms: _527  and  _528
REMARK  210  A    between atoms: _528  and  _529
REMARK  211  A    between atoms: _532  and  _534
REMARK  212  A    between atoms: _534  and  _535
REMARK  213  A    between atoms: _534  and  _537
REMARK  214  A    between atoms: _537  and  _538
REMARK  215  A    between atoms: _543  and  _544
REMARK  216  A    between atoms: _546  and  _548
REMARK  217  A    between atoms: _548  and  _549
REMARK  218  A    between atoms: _552  and  _554
REMARK  219  A    between atoms: _554  and  _555
REMARK  220  A    between atoms: _554  and  _557
REMARK  221  A    between atoms: _557  and  _558
REMARK  222  A    between atoms: _562  and  _563
REMARK  223  A    between atoms: _568  and  _570
REMARK  224  A    between atoms: _570  and  _571
REMARK  225  A    between atoms: _570  and  _573
REMARK  226  A    between atoms: _573  and  _574
REMARK  227  A    between atoms: _577  and  _579
REMARK  228  A    between atoms: _579  and  _580
REMARK  229  A    between atoms: _579  and  _582
REMARK  230  A    between atoms: _582  and  _583
REMARK  231  A    between atoms: _583  and  _584
REMARK  232  A    between atoms: _589  and  _591
REMARK  233  A    between atoms: _591  and  _592
REMARK  234  A    between atoms: _591  and  _594
REMARK  235  A    between atoms: _594  and  _595
REMARK  236  A    between atoms: _598  and  _600
REMARK  237  A    between atoms: _600  and  _601
REMARK  238  A    between atoms: _600  and  _603
REMARK  239  A    between atoms: _603  and  _604
REMARK  240  A    between atoms: _607  and  _609
REMARK  241  A    between atoms: _609  and  _610
REMARK  242  A    between atoms: _609  and  _612
REMARK  243  A    between atoms: _612  and  _613
REMARK                            x       y       z     vdW  Elec       q    Type
REMARK                         _______ _______ _______ _____ _____    ______ ____
ROOT
ATOM      1  O   HOH     1      24.165  30.515  19.005  0.00  0.00    +0.000 OA
ENDROOT
TORSDOF 0
REMARK  Name = ../refined-set-2016/4f5y/4f5y_pocket.pdb
REMARK  243 active torsions:
REMARK  status: ('A' for Active; 'I' for Inactive)
REMARK    1  A    between atoms: _1  and  _3
REMARK    2  A    between atoms: _3  and  _4
REMARK    3  A    between atoms: _6  and  _8
REMARK    4  A    between atoms: _8  and  _9
REMARK    5  A    between atoms: _8  and  _11
REMARK    6  A    between atoms: _11  and  _12
REMARK    7  A    between atoms: _15  and  _17
REMARK    8  A    between atoms: _17  and  _18
REMARK    9  A    between atoms: _21  and  _23
REMARK   10  A    between atoms: _23  and  _24
REMARK   11  A    between atoms: _23  and  _26
REMARK   12  A    between atoms: _26  and  _27
REMARK   13  A    between atoms: _37  and  _39
REMARK   14  A    between atoms: _39  and  _40
REMARK   15  A    between atoms: _39  and  _42
REMARK   16  A    between atoms: _42  and  _43
REMARK   17  A    between atoms: _45  and  _47
REMARK   18  A    between atoms: _47  and  _48
REMARK   19  A    between atoms: _47  and  _50
REMARK   20  A    between atoms: _50  and  _51
REMARK   21  A    between atoms: _56  and  _57
REMARK   22  A    between atoms: _59  and  _61
REMARK   23  A    between atoms: _61  and  _62
REMARK   24  A    between atoms: _61  and  _64
REMARK   25  A    between atoms: _64  and  _65
REMARK   26  A    between atoms: _70  and  _71
REMARK   27  A    between atoms: _73  and  _75
REMARK   28  A    between atoms: _75  and  _76
REMARK   29  A    between atoms: _75  and  _78
REMARK   30  A    between atoms: _78  and  _79
REMARK   31  A    between atoms: _82  and  _84
REMARK   32  A    between atoms: _84  and  _85
REMARK   33  A    between atoms: _87  and  _89
REMARK   34  A    between atoms: _89  and  _90
REMARK   35  A    between atoms: _89  and  _92
REMARK   36  A    between atoms: _92  and  _93
REMARK   37  A    between atoms: _98  and  _99
REMARK   38  A    between atoms: _101  and  _103
REMARK   39  A    between atoms: _103  and  _104
REMARK   40  A    between atoms: _103  and  _106
REMARK   41  A    between atoms: _106  and  _107
REMARK   42  A    between atoms: _110  and  _112
REMARK   43  A    between atoms: _112  and  _113
REMARK   44  A    between atoms: _112  and  _115
REMARK   45  A    between atoms: _115  and  _116
REMARK   46  A    between atoms: _119  and  _121
REMARK   47  A    between atoms: _121  and  _122
REMARK   48  A    between atoms: _121  and  _124
REMARK   49  A    between atoms: _124  and  _125
REMARK   50  A    between atoms: _128  and  _130
REMARK   51  A    between atoms: _130  and  _131
REMARK   52  A    between atoms: _130  and  _133
REMARK   53  A    between atoms: _133  and  _134
REMARK   54  A    between atoms: _137  and  _139
REMARK   55  A    between atoms: _139  and  _140
REMARK   56  A    between atoms: _139  and  _142
REMARK   57  A    between atoms: _142  and  _143
REMARK   58  A    between atoms: _143  and  _144
REMARK   59  A    between atoms: _144  and  _145
REMARK   60  A    between atoms: _145  and  _146
REMARK   61  A    between atoms: _150  and  _152
REMARK   62  A    between atoms: _152  and  _153
REMARK   63  A    between atoms: _152  and  _155
REMARK   64  A    between atoms: _155  and  _156
REMARK   65  A    between atoms: _159  and  _161
REMARK   66  A    between atoms: _161  and  _162
REMARK   67  A    between atoms: _161  and  _164
REMARK   68  A    between atoms: _164  and  _165
REMARK   69  A    between atoms: _165  and  _166
REMARK   70  A    between atoms: _166  and  _167
REMARK   71  A    between atoms: _176  and  _178
REMARK   72  A    between atoms: _178  and  _179
REMARK   73  A    between atoms: _178  and  _181
REMARK   74  A    between atoms: _184  and  _186
REMARK   75  A    between atoms: _186  and  _187
REMARK   76  A    between atoms: _186  and  _189
REMARK   77  A    between atoms: _189  and  _190
REMARK   78  A    between atoms: _195  and  _196
REMARK   79  A    between atoms: _198  and  _200
REMARK   80  A    between atoms: _200  and  _201
REMARK   81  A    between atoms: _200  and  _203
REMARK   82  A    between atoms: _203  and  _204
REMARK   83  A    between atoms: _206  and  _208
REMARK   84  A    between atoms: _208  and  _209
REMARK   85  A    between atoms: _208  and  _211
REMARK   86  A    between atoms: _211  and  _212
REMARK   87  A    between atoms: _212  and  _213
REMARK   88  A    between atoms: _216  and  _218
REMARK   89  A    between atoms: _218  and  _219
REMARK   90  A    between atoms: _218  and  _221
REMARK   91  A    between atoms: _221  and  _222
REMARK   92  A    between atoms: _227  and  _228
REMARK   93  A    between atoms: _230  and  _232
REMARK   94  A    between atoms: _232  and  _233
REMARK   95  A    between atoms: _236  and  _238
REMARK   96  A    between atoms: _238  and  _239
REMARK   97  A    between atoms: _238  and  _241
REMARK   98  A    between atoms: _241  and  _242
REMARK   99  A    between atoms: _246  and  _247
REMARK  100  A    between atoms: _252  and  _254
REMARK  101  A    between atoms: _254  and  _255
REMARK  102  A    between atoms: _254  and  _257
REMARK  103  A    between atoms: _257  and  _258
REMARK  104  A    between atoms: _261  and  _263
REMARK  105  A    between atoms: _263  and  _264
REMARK  106  A    between atoms: _263  and  _266
REMARK  107  A    between atoms: _266  and  _267
REMARK  108  A    between atoms: _267  and  _268
REMARK  109  A    between atoms: _273  and  _275
REMARK  110  A    between atoms: _275  and  _276
REMARK  111  A    between atoms: _275  and  _278
REMARK  112  A    between atoms: _278  and  _279
REMARK  113  A    between atoms: _282  and  _284
REMARK  114  A    between atoms: _284  and  _285
REMARK  115  A    between atoms: _284  and  _287
REMARK  116  A    between atoms: _287  and  _288
REMARK  117  A    between atoms: _294  and  _296
REMARK  118  A    between atoms: _296  and  _297
REMARK  119  A    between atoms: _299  and  _301
REMARK  120  A    between atoms: _301  and  _302
REMARK  121  A    between atoms: _301  and  _304
REMARK  122  A    between atoms: _304  and  _305
REMARK  123  A    between atoms: _308  and  _310
REMARK  124  A    between atoms: _310  and  _311
REMARK  125  A    between atoms: _314  and  _316
REMARK  126  A    between atoms: _316  and  _317
REMARK  127  A    between atoms: _316  and  _319
REMARK  128  A    between atoms: _319  and  _320
REMARK  129  A    between atoms: _330  and  _332
REMARK  130  A    between atoms: _332  and  _333
REMARK  131  A    between atoms: _332  and  _335
REMARK  132  A    between atoms: _335  and  _336
REMARK  133  A    between atoms: _338  and  _340
REMARK  134  A    between atoms: _340  and  _341
REMARK  135  A    between atoms: _340  and  _343
REMARK  136  A    between atoms: _343  and  _344
REMARK  137  A    between atoms: _349  and  _350
REMARK  138  A    between atoms: _352  and  _354
REMARK  139  A    between atoms: _354  and  _355
REMARK  140  A    between atoms: _354  and  _357
REMARK  141  A    between atoms: _357  and  _358
REMARK  142  A    between atoms: _363  and  _364
REMARK  143  A    between atoms: _366  and  _368
REMARK  144  A    between atoms: _368  and  _369
REMARK  145  A    between atoms: _368  and  _371
REMARK  146  A    between atoms: _371  and  _372
REMARK  147  A    between atoms: _375  and  _377
REMARK  148  A    between atoms: _377  and  _378
REMARK  149  A    between atoms: _380  and  _382
REMARK  150  A    between atoms: _382  and  _383
REMARK  151  A    between atoms: _382  and  _385
REMARK  152  A    between atoms: _385  and  _386
REMARK  153  A    between atoms: _391  and  _392
REMARK  154  A    between atoms: _394  and  _396
REMARK  155  A    between atoms: _396  and  _397
REMARK  156  A    between atoms: _396  and  _399
REMARK  157  A    between atoms: _399  and  _400
REMARK  158  A    between atoms: _403  and  _405
REMARK  159  A    between atoms: _405  and  _406
REMARK  160  A    between atoms: _405  and  _408
REMARK  161  A    between atoms: _408  and  _409
REMARK  162  A    between atoms: _409  and  _410
REMARK  163  A    between atoms: _410  and  _411
REMARK  164  A    between atoms: _420  and  _422
REMARK  165  A    between atoms: _422  and  _423
REMARK  166  A    between atoms: _422  and  _425
REMARK  167  A    between atoms: _425  and  _426
REMARK  168  A    between atoms: _429  and  _431
REMARK  169  A    between atoms: _431  and  _432
REMARK  170  A    between atoms: _431  and  _434
REMARK  171  A    between atoms: _434  and  _435
REMARK  172  A    between atoms: _438  and  _440
REMARK  173  A    between atoms: _440  and  _441
REMARK  174  A    between atoms: _440  and  _443
REMARK  175  A    between atoms: _443  and  _444
REMARK  176  A    between atoms: _447  and  _449
REMARK  177  A    between atoms: _449  and  _450
REMARK  178  A    between atoms: _449  and  _452
REMARK  179  A    between atoms: _452  and  _453
REMARK  180  A    between atoms: _456  and  _458
REMARK  181  A    between atoms: _458  and  _459
REMARK  182  A    between atoms: _458  and  _461
REMARK  183  A    between atoms: _461  and  _462
REMARK  184  A    between atoms: _462  and  _463
REMARK  185  A    between atoms: _463  and  _464
REMARK  186  A    between atoms: _473  and  _475
REMARK  187  A    between atoms: _475  and  _476
REMARK  188  A    between atoms: _475  and  _478
REMARK  189  A    between atoms: _481  and  _483
REMARK  190  A    between atoms: _483  and  _484
REMARK  191  A    between atoms: _483  and  _486
REMARK  192  A    between atoms: _486  and  _487
REMARK  193  A    between atoms: _492  and  _493
REMARK  194  A    between atoms: _495  and  _497
REMARK  195  A    between atoms: _497  and  _498
REMARK  196  A    between atoms: _497  and  _500
REMARK  197  A    between atoms: _500  and  _501
REMARK  198  A    between atoms: _503  and  _505
REMARK  199  A    between atoms: _505  and  _506
REMARK  200  A    between atoms: _505  and  _508
REMARK  201  A    between atoms: _508  and  _509
REMARK  202  A    between atoms: _514  and  _516
REMARK  203  A    between atoms: _516  and  _517
REMARK  204  A    between atoms: _516  and  _519
REMARK  205  A    between atoms: _519  and  _520
REMARK  206  A    between atoms: _522  and  _524
REMARK  207  A    between atoms: _524  and  _525
REMARK  208  A    between atoms: _524  and  _527
REMARK  209  A    between atoms: _527  and  _528
REMARK  210  A    between atoms: _528  and  _529
REMARK  211  A    between atoms: _532  and  _534
REMARK  212  A    between atoms: _534  and  _535
REMARK  213  A    between atoms: _534  and  _537
REMARK  214  A    between atoms: _537  and  _538
REMARK  215  A    between atoms: _543  and  _544
REMARK  216  A    between atoms: _546  and  _548
REMARK  217  A    between atoms: _548  and  _549
REMARK  218  A    between atoms: _552  and  _554
REMARK  219  A    between atoms: _554  and  _555
REMARK  220  A    between atoms: _554  and  _557
REMARK  221  A    between atoms: _557  and  _558
REMARK  222  A    between atoms: _562  and  _563
REMARK  223  A    between atoms: _568  and  _570
REMARK  224  A    between atoms: _570  and  _571
REMARK  225  A    between atoms: _570  and  _573
REMARK  226  A    between atoms: _573  and  _574
REMARK  227  A    between atoms: _577  and  _579
REMARK  228  A    between atoms: _579  and  _580
REMARK  229  A    between atoms: _579  and  _582
REMARK  230  A    between atoms: _582  and  _583
REMARK  231  A    between atoms: _583  and  _584
REMARK  232  A    between atoms: _589  and  _591
REMARK  233  A    between atoms: _591  and  _592
REMARK  234  A    between atoms: _591  and  _594
REMARK  235  A    between atoms: _594  and  _595
REMARK  236  A    between atoms: _598  and  _600
REMARK  237  A    between atoms: _600  and  _601
REMARK  238  A    between atoms: _600  and  _603
REMARK  239  A    between atoms: _603  and  _604
REMARK  240  A    between atoms: _607  and  _609
REMARK  241  A    between atoms: _609  and  _610
REMARK  242  A    between atoms: _609  and  _612
REMARK  243  A    between atoms: _612  and  _613
REMARK                            x       y       z     vdW  Elec       q    Type
REMARK                         _______ _______ _______ _____ _____    ______ ____
ROOT
ATOM      1  O   HOH     1      17.580  26.046  24.339  0.00  0.00    +0.000 OA
ENDROOT
TORSDOF 0
REMARK  Name = ../refined-set-2016/4f5y/4f5y_pocket.pdb
REMARK  243 active torsions:
REMARK  status: ('A' for Active; 'I' for Inactive)
REMARK    1  A    between atoms: _1  and  _3
REMARK    2  A    between atoms: _3  and  _4
REMARK    3  A    between atoms: _6  and  _8
REMARK    4  A    between atoms: _8  and  _9
REMARK    5  A    between atoms: _8  and  _11
REMARK    6  A    between atoms: _11  and  _12
REMARK    7  A    between atoms: _15  and  _17
REMARK    8  A    between atoms: _17  and  _18
REMARK    9  A    between atoms: _21  and  _23
REMARK   10  A    between atoms: _23  and  _24
REMARK   11  A    between atoms: _23  and  _26
REMARK   12  A    between atoms: _26  and  _27
REMARK   13  A    between atoms: _37  and  _39
REMARK   14  A    between atoms: _39  and  _40
REMARK   15  A    between atoms: _39  and  _42
REMARK   16  A    between atoms: _42  and  _43
REMARK   17  A    between atoms: _45  and  _47
REMARK   18  A    between atoms: _47  and  _48
REMARK   19  A    between atoms: _47  and  _50
REMARK   20  A    between atoms: _50  and  _51
REMARK   21  A    between atoms: _56  and  _57
REMARK   22  A    between atoms: _59  and  _61
REMARK   23  A    between atoms: _61  and  _62
REMARK   24  A    between atoms: _61  and  _64
REMARK   25  A    between atoms: _64  and  _65
REMARK   26  A    between atoms: _70  and  _71
REMARK   27  A    between atoms: _73  and  _75
REMARK   28  A    between atoms: _75  and  _76
REMARK   29  A    between atoms: _75  and  _78
REMARK   30  A    between atoms: _78  and  _79
REMARK   31  A    between atoms: _82  and  _84
REMARK   32  A    between atoms: _84  and  _85
REMARK   33  A    between atoms: _87  and  _89
REMARK   34  A    between atoms: _89  and  _90
REMARK   35  A    between atoms: _89  and  _92
REMARK   36  A    between atoms: _92  and  _93
REMARK   37  A    between atoms: _98  and  _99
REMARK   38  A    between atoms: _101  and  _103
REMARK   39  A    between atoms: _103  and  _104
REMARK   40  A    between atoms: _103  and  _106
REMARK   41  A    between atoms: _106  and  _107
REMARK   42  A    between atoms: _110  and  _112
REMARK   43  A    between atoms: _112  and  _113
REMARK   44  A    between atoms: _112  and  _115
REMARK   45  A    between atoms: _115  and  _116
REMARK   46  A    between atoms: _119  and  _121
REMARK   47  A    between atoms: _121  and  _122
REMARK   48  A    between atoms: _121  and  _124
REMARK   49  A    between atoms: _124  and  _125
REMARK   50  A    between atoms: _128  and  _130
REMARK   51  A    between atoms: _130  and  _131
REMARK   52  A    between atoms: _130  and  _133
REMARK   53  A    between atoms: _133  and  _134
REMARK   54  A    between atoms: _137  and  _139
REMARK   55  A    between atoms: _139  and  _140
REMARK   56  A    between atoms: _139  and  _142
REMARK   57  A    between atoms: _142  and  _143
REMARK   58  A    between atoms: _143  and  _144
REMARK   59  A    between atoms: _144  and  _145
REMARK   60  A    between atoms: _145  and  _146
REMARK   61  A    between atoms: _150  and  _152
REMARK   62  A    between atoms: _152  and  _153
REMARK   63  A    between atoms: _152  and  _155
REMARK   64  A    between atoms: _155  and  _156
REMARK   65  A    between atoms: _159  and  _161
REMARK   66  A    between atoms: _161  and  _162
REMARK   67  A    between atoms: _161  and  _164
REMARK   68  A    between atoms: _164  and  _165
REMARK   69  A    between atoms: _165  and  _166
REMARK   70  A    between atoms: _166  and  _167
REMARK   71  A    between atoms: _176  and  _178
REMARK   72  A    between atoms: _178  and  _179
REMARK   73  A    between atoms: _178  and  _181
REMARK   74  A    between atoms: _184  and  _186
REMARK   75  A    between atoms: _186  and  _187
REMARK   76  A    between atoms: _186  and  _189
REMARK   77  A    between atoms: _189  and  _190
REMARK   78  A    between atoms: _195  and  _196
REMARK   79  A    between atoms: _198  and  _200
REMARK   80  A    between atoms: _200  and  _201
REMARK   81  A    between atoms: _200  and  _203
REMARK   82  A    between atoms: _203  and  _204
REMARK   83  A    between atoms: _206  and  _208
REMARK   84  A    between atoms: _208  and  _209
REMARK   85  A    between atoms: _208  and  _211
REMARK   86  A    between atoms: _211  and  _212
REMARK   87  A    between atoms: _212  and  _213
REMARK   88  A    between atoms: _216  and  _218
REMARK   89  A    between atoms: _218  and  _219
REMARK   90  A    between atoms: _218  and  _221
REMARK   91  A    between atoms: _221  and  _222
REMARK   92  A    between atoms: _227  and  _228
REMARK   93  A    between atoms: _230  and  _232
REMARK   94  A    between atoms: _232  and  _233
REMARK   95  A    between atoms: _236  and  _238
REMARK   96  A    between atoms: _238  and  _239
REMARK   97  A    between atoms: _238  and  _241
REMARK   98  A    between atoms: _241  and  _242
REMARK   99  A    between atoms: _246  and  _247
REMARK  100  A    between atoms: _252  and  _254
REMARK  101  A    between atoms: _254  and  _255
REMARK  102  A    between atoms: _254  and  _257
REMARK  103  A    between atoms: _257  and  _258
REMARK  104  A    between atoms: _261  and  _263
REMARK  105  A    between atoms: _263  and  _264
REMARK  106  A    between atoms: _263  and  _266
REMARK  107  A    between atoms: _266  and  _267
REMARK  108  A    between atoms: _267  and  _268
REMARK  109  A    between atoms: _273  and  _275
REMARK  110  A    between atoms: _275  and  _276
REMARK  111  A    between atoms: _275  and  _278
REMARK  112  A    between atoms: _278  and  _279
REMARK  113  A    between atoms: _282  and  _284
REMARK  114  A    between atoms: _284  and  _285
REMARK  115  A    between atoms: _284  and  _287
REMARK  116  A    between atoms: _287  and  _288
REMARK  117  A    between atoms: _294  and  _296
REMARK  118  A    between atoms: _296  and  _297
REMARK  119  A    between atoms: _299  and  _301
REMARK  120  A    between atoms: _301  and  _302
REMARK  121  A    between atoms: _301  and  _304
REMARK  122  A    between atoms: _304  and  _305
REMARK  123  A    between atoms: _308  and  _310
REMARK  124  A    between atoms: _310  and  _311
REMARK  125  A    between atoms: _314  and  _316
REMARK  126  A    between atoms: _316  and  _317
REMARK  127  A    between atoms: _316  and  _319
REMARK  128  A    between atoms: _319  and  _320
REMARK  129  A    between atoms: _330  and  _332
REMARK  130  A    between atoms: _332  and  _333
REMARK  131  A    between atoms: _332  and  _335
REMARK  132  A    between atoms: _335  and  _336
REMARK  133  A    between atoms: _338  and  _340
REMARK  134  A    between atoms: _340  and  _341
REMARK  135  A    between atoms: _340  and  _343
REMARK  136  A    between atoms: _343  and  _344
REMARK  137  A    between atoms: _349  and  _350
REMARK  138  A    between atoms: _352  and  _354
REMARK  139  A    between atoms: _354  and  _355
REMARK  140  A    between atoms: _354  and  _357
REMARK  141  A    between atoms: _357  and  _358
REMARK  142  A    between atoms: _363  and  _364
REMARK  143  A    between atoms: _366  and  _368
REMARK  144  A    between atoms: _368  and  _369
REMARK  145  A    between atoms: _368  and  _371
REMARK  146  A    between atoms: _371  and  _372
REMARK  147  A    between atoms: _375  and  _377
REMARK  148  A    between atoms: _377  and  _378
REMARK  149  A    between atoms: _380  and  _382
REMARK  150  A    between atoms: _382  and  _383
REMARK  151  A    between atoms: _382  and  _385
REMARK  152  A    between atoms: _385  and  _386
REMARK  153  A    between atoms: _391  and  _392
REMARK  154  A    between atoms: _394  and  _396
REMARK  155  A    between atoms: _396  and  _397
REMARK  156  A    between atoms: _396  and  _399
REMARK  157  A    between atoms: _399  and  _400
REMARK  158  A    between atoms: _403  and  _405
REMARK  159  A    between atoms: _405  and  _406
REMARK  160  A    between atoms: _405  and  _408
REMARK  161  A    between atoms: _408  and  _409
REMARK  162  A    between atoms: _409  and  _410
REMARK  163  A    between atoms: _410  and  _411
REMARK  164  A    between atoms: _420  and  _422
REMARK  165  A    between atoms: _422  and  _423
REMARK  166  A    between atoms: _422  and  _425
REMARK  167  A    between atoms: _425  and  _426
REMARK  168  A    between atoms: _429  and  _431
REMARK  169  A    between atoms: _431  and  _432
REMARK  170  A    between atoms: _431  and  _434
REMARK  171  A    between atoms: _434  and  _435
REMARK  172  A    between atoms: _438  and  _440
REMARK  173  A    between atoms: _440  and  _441
REMARK  174  A    between atoms: _440  and  _443
REMARK  175  A    between atoms: _443  and  _444
REMARK  176  A    between atoms: _447  and  _449
REMARK  177  A    between atoms: _449  and  _450
REMARK  178  A    between atoms: _449  and  _452
REMARK  179  A    between atoms: _452  and  _453
REMARK  180  A    between atoms: _456  and  _458
REMARK  181  A    between atoms: _458  and  _459
REMARK  182  A    between atoms: _458  and  _461
REMARK  183  A    between atoms: _461  and  _462
REMARK  184  A    between atoms: _462  and  _463
REMARK  185  A    between atoms: _463  and  _464
REMARK  186  A    between atoms: _473  and  _475
REMARK  187  A    between atoms: _475  and  _476
REMARK  188  A    between atoms: _475  and  _478
REMARK  189  A    between atoms: _481  and  _483
REMARK  190  A    between atoms: _483  and  _484
REMARK  191  A    between atoms: _483  and  _486
REMARK  192  A    between atoms: _486  and  _487
REMARK  193  A    between atoms: _492  and  _493
REMARK  194  A    between atoms: _495  and  _497
REMARK  195  A    between atoms: _497  and  _498
REMARK  196  A    between atoms: _497  and  _500
REMARK  197  A    between atoms: _500  and  _501
REMARK  198  A    between atoms: _503  and  _505
REMARK  199  A    between atoms: _505  and  _506
REMARK  200  A    between atoms: _505  and  _508
REMARK  201  A    between atoms: _508  and  _509
REMARK  202  A    between atoms: _514  and  _516
REMARK  203  A    between atoms: _516  and  _517
REMARK  204  A    between atoms: _516  and  _519
REMARK  205  A    between atoms: _519  and  _520
REMARK  206  A    between atoms: _522  and  _524
REMARK  207  A    between atoms: _524  and  _525
REMARK  208  A    between atoms: _524  and  _527
REMARK  209  A    between atoms: _527  and  _528
REMARK  210  A    between atoms: _528  and  _529
REMARK  211  A    between atoms: _532  and  _534
REMARK  212  A    between atoms: _534  and  _535
REMARK  213  A    between atoms: _534  and  _537
REMARK  214  A    between atoms: _537  and  _538
REMARK  215  A    between atoms: _543  and  _544
REMARK  216  A    between atoms: _546  and  _548
REMARK  217  A    between atoms: _548  and  _549
REMARK  218  A    between atoms: _552  and  _554
REMARK  219  A    between atoms: _554  and  _555
REMARK  220  A    between atoms: _554  and  _557
REMARK  221  A    between atoms: _557  and  _558
REMARK  222  A    between atoms: _562  and  _563
REMARK  223  A    between atoms: _568  and  _570
REMARK  224  A    between atoms: _570  and  _571
REMARK  225  A    between atoms: _570  and  _573
REMARK  226  A    between atoms: _573  and  _574
REMARK  227  A    between atoms: _577  and  _579
REMARK  228  A    between atoms: _579  and  _580
REMARK  229  A    between atoms: _579  and  _582
REMARK  230  A    between atoms: _582  and  _583
REMARK  231  A    between atoms: _583  and  _584
REMARK  232  A    between atoms: _589  and  _591
REMARK  233  A    between atoms: _591  and  _592
REMARK  234  A    between atoms: _591  and  _594
REMARK  235  A    between atoms: _594  and  _595
REMARK  236  A    between atoms: _598  and  _600
REMARK  237  A    between atoms: _600  and  _601
REMARK  238  A    between atoms: _600  and  _603
REMARK  239  A    between atoms: _603  and  _604
REMARK  240  A    between atoms: _607  and  _609
REMARK  241  A    between atoms: _609  and  _610
REMARK  242  A    between atoms: _609  and  _612
REMARK  243  A    between atoms: _612  and  _613
REMARK                            x       y       z     vdW  Elec       q    Type
REMARK                         _______ _______ _______ _____ _____    ______ ____
ROOT
ATOM      1  O   HOH     1      16.506  27.802  21.146  0.00  0.00    +0.000 OA
ENDROOT
TORSDOF 0
REMARK  Name = ../refined-set-2016/4f5y/4f5y_pocket.pdb
REMARK  243 active torsions:
REMARK  status: ('A' for Active; 'I' for Inactive)
REMARK    1  A    between atoms: _1  and  _3
REMARK    2  A    between atoms: _3  and  _4
REMARK    3  A    between atoms: _6  and  _8
REMARK    4  A    between atoms: _8  and  _9
REMARK    5  A    between atoms: _8  and  _11
REMARK    6  A    between atoms: _11  and  _12
REMARK    7  A    between atoms: _15  and  _17
REMARK    8  A    between atoms: _17  and  _18
REMARK    9  A    between atoms: _21  and  _23
REMARK   10  A    between atoms: _23  and  _24
REMARK   11  A    between atoms: _23  and  _26
REMARK   12  A    between atoms: _26  and  _27
REMARK   13  A    between atoms: _37  and  _39
REMARK   14  A    between atoms: _39  and  _40
REMARK   15  A    between atoms: _39  and  _42
REMARK   16  A    between atoms: _42  and  _43
REMARK   17  A    between atoms: _45  and  _47
REMARK   18  A    between atoms: _47  and  _48
REMARK   19  A    between atoms: _47  and  _50
REMARK   20  A    between atoms: _50  and  _51
REMARK   21  A    between atoms: _56  and  _57
REMARK   22  A    between atoms: _59  and  _61
REMARK   23  A    between atoms: _61  and  _62
REMARK   24  A    between atoms: _61  and  _64
REMARK   25  A    between atoms: _64  and  _65
REMARK   26  A    between atoms: _70  and  _71
REMARK   27  A    between atoms: _73  and  _75
REMARK   28  A    between atoms: _75  and  _76
REMARK   29  A    between atoms: _75  and  _78
REMARK   30  A    between atoms: _78  and  _79
REMARK   31  A    between atoms: _82  and  _84
REMARK   32  A    between atoms: _84  and  _85
REMARK   33  A    between atoms: _87  and  _89
REMARK   34  A    between atoms: _89  and  _90
REMARK   35  A    between atoms: _89  and  _92
REMARK   36  A    between atoms: _92  and  _93
REMARK   37  A    between atoms: _98  and  _99
REMARK   38  A    between atoms: _101  and  _103
REMARK   39  A    between atoms: _103  and  _104
REMARK   40  A    between atoms: _103  and  _106
REMARK   41  A    between atoms: _106  and  _107
REMARK   42  A    between atoms: _110  and  _112
REMARK   43  A    between atoms: _112  and  _113
REMARK   44  A    between atoms: _112  and  _115
REMARK   45  A    between atoms: _115  and  _116
REMARK   46  A    between atoms: _119  and  _121
REMARK   47  A    between atoms: _121  and  _122
REMARK   48  A    between atoms: _121  and  _124
REMARK   49  A    between atoms: _124  and  _125
REMARK   50  A    between atoms: _128  and  _130
REMARK   51  A    between atoms: _130  and  _131
REMARK   52  A    between atoms: _130  and  _133
REMARK   53  A    between atoms: _133  and  _134
REMARK   54  A    between atoms: _137  and  _139
REMARK   55  A    between atoms: _139  and  _140
REMARK   56  A    between atoms: _139  and  _142
REMARK   57  A    between atoms: _142  and  _143
REMARK   58  A    between atoms: _143  and  _144
REMARK   59  A    between atoms: _144  and  _145
REMARK   60  A    between atoms: _145  and  _146
REMARK   61  A    between atoms: _150  and  _152
REMARK   62  A    between atoms: _152  and  _153
REMARK   63  A    between atoms: _152  and  _155
REMARK   64  A    between atoms: _155  and  _156
REMARK   65  A    between atoms: _159  and  _161
REMARK   66  A    between atoms: _161  and  _162
REMARK   67  A    between atoms: _161  and  _164
REMARK   68  A    between atoms: _164  and  _165
REMARK   69  A    between atoms: _165  and  _166
REMARK   70  A    between atoms: _166  and  _167
REMARK   71  A    between atoms: _176  and  _178
REMARK   72  A    between atoms: _178  and  _179
REMARK   73  A    between atoms: _178  and  _181
REMARK   74  A    between atoms: _184  and  _186
REMARK   75  A    between atoms: _186  and  _187
REMARK   76  A    between atoms: _186  and  _189
REMARK   77  A    between atoms: _189  and  _190
REMARK   78  A    between atoms: _195  and  _196
REMARK   79  A    between atoms: _198  and  _200
REMARK   80  A    between atoms: _200  and  _201
REMARK   81  A    between atoms: _200  and  _203
REMARK   82  A    between atoms: _203  and  _204
REMARK   83  A    between atoms: _206  and  _208
REMARK   84  A    between atoms: _208  and  _209
REMARK   85  A    between atoms: _208  and  _211
REMARK   86  A    between atoms: _211  and  _212
REMARK   87  A    between atoms: _212  and  _213
REMARK   88  A    between atoms: _216  and  _218
REMARK   89  A    between atoms: _218  and  _219
REMARK   90  A    between atoms: _218  and  _221
REMARK   91  A    between atoms: _221  and  _222
REMARK   92  A    between atoms: _227  and  _228
REMARK   93  A    between atoms: _230  and  _232
REMARK   94  A    between atoms: _232  and  _233
REMARK   95  A    between atoms: _236  and  _238
REMARK   96  A    between atoms: _238  and  _239
REMARK   97  A    between atoms: _238  and  _241
REMARK   98  A    between atoms: _241  and  _242
REMARK   99  A    between atoms: _246  and  _247
REMARK  100  A    between atoms: _252  and  _254
REMARK  101  A    between atoms: _254  and  _255
REMARK  102  A    between atoms: _254  and  _257
REMARK  103  A    between atoms: _257  and  _258
REMARK  104  A    between atoms: _261  and  _263
REMARK  105  A    between atoms: _263  and  _264
REMARK  106  A    between atoms: _263  and  _266
REMARK  107  A    between atoms: _266  and  _267
REMARK  108  A    between atoms: _267  and  _268
REMARK  109  A    between atoms: _273  and  _275
REMARK  110  A    between atoms: _275  and  _276
REMARK  111  A    between atoms: _275  and  _278
REMARK  112  A    between atoms: _278  and  _279
REMARK  113  A    between atoms: _282  and  _284
REMARK  114  A    between atoms: _284  and  _285
REMARK  115  A    between atoms: _284  and  _287
REMARK  116  A    between atoms: _287  and  _288
REMARK  117  A    between atoms: _294  and  _296
REMARK  118  A    between atoms: _296  and  _297
REMARK  119  A    between atoms: _299  and  _301
REMARK  120  A    between atoms: _301  and  _302
REMARK  121  A    between atoms: _301  and  _304
REMARK  122  A    between atoms: _304  and  _305
REMARK  123  A    between atoms: _308  and  _310
REMARK  124  A    between atoms: _310  and  _311
REMARK  125  A    between atoms: _314  and  _316
REMARK  126  A    between atoms: _316  and  _317
REMARK  127  A    between atoms: _316  and  _319
REMARK  128  A    between atoms: _319  and  _320
REMARK  129  A    between atoms: _330  and  _332
REMARK  130  A    between atoms: _332  and  _333
REMARK  131  A    between atoms: _332  and  _335
REMARK  132  A    between atoms: _335  and  _336
REMARK  133  A    between atoms: _338  and  _340
REMARK  134  A    between atoms: _340  and  _341
REMARK  135  A    between atoms: _340  and  _343
REMARK  136  A    between atoms: _343  and  _344
REMARK  137  A    between atoms: _349  and  _350
REMARK  138  A    between atoms: _352  and  _354
REMARK  139  A    between atoms: _354  and  _355
REMARK  140  A    between atoms: _354  and  _357
REMARK  141  A    between atoms: _357  and  _358
REMARK  142  A    between atoms: _363  and  _364
REMARK  143  A    between atoms: _366  and  _368
REMARK  144  A    between atoms: _368  and  _369
REMARK  145  A    between atoms: _368  and  _371
REMARK  146  A    between atoms: _371  and  _372
REMARK  147  A    between atoms: _375  and  _377
REMARK  148  A    between atoms: _377  and  _378
REMARK  149  A    between atoms: _380  and  _382
REMARK  150  A    between atoms: _382  and  _383
REMARK  151  A    between atoms: _382  and  _385
REMARK  152  A    between atoms: _385  and  _386
REMARK  153  A    between atoms: _391  and  _392
REMARK  154  A    between atoms: _394  and  _396
REMARK  155  A    between atoms: _396  and  _397
REMARK  156  A    between atoms: _396  and  _399
REMARK  157  A    between atoms: _399  and  _400
REMARK  158  A    between atoms: _403  and  _405
REMARK  159  A    between atoms: _405  and  _406
REMARK  160  A    between atoms: _405  and  _408
REMARK  161  A    between atoms: _408  and  _409
REMARK  162  A    between atoms: _409  and  _410
REMARK  163  A    between atoms: _410  and  _411
REMARK  164  A    between atoms: _420  and  _422
REMARK  165  A    between atoms: _422  and  _423
REMARK  166  A    between atoms: _422  and  _425
REMARK  167  A    between atoms: _425  and  _426
REMARK  168  A    between atoms: _429  and  _431
REMARK  169  A    between atoms: _431  and  _432
REMARK  170  A    between atoms: _431  and  _434
REMARK  171  A    between atoms: _434  and  _435
REMARK  172  A    between atoms: _438  and  _440
REMARK  173  A    between atoms: _440  and  _441
REMARK  174  A    between atoms: _440  and  _443
REMARK  175  A    between atoms: _443  and  _444
REMARK  176  A    between atoms: _447  and  _449
REMARK  177  A    between atoms: _449  and  _450
REMARK  178  A    between atoms: _449  and  _452
REMARK  179  A    between atoms: _452  and  _453
REMARK  180  A    between atoms: _456  and  _458
REMARK  181  A    between atoms: _458  and  _459
REMARK  182  A    between atoms: _458  and  _461
REMARK  183  A    between atoms: _461  and  _462
REMARK  184  A    between atoms: _462  and  _463
REMARK  185  A    between atoms: _463  and  _464
REMARK  186  A    between atoms: _473  and  _475
REMARK  187  A    between atoms: _475  and  _476
REMARK  188  A    between atoms: _475  and  _478
REMARK  189  A    between atoms: _481  and  _483
REMARK  190  A    between atoms: _483  and  _484
REMARK  191  A    between atoms: _483  and  _486
REMARK  192  A    between atoms: _486  and  _487
REMARK  193  A    between atoms: _492  and  _493
REMARK  194  A    between atoms: _495  and  _497
REMARK  195  A    between atoms: _497  and  _498
REMARK  196  A    between atoms: _497  and  _500
REMARK  197  A    between atoms: _500  and  _501
REMARK  198  A    between atoms: _503  and  _505
REMARK  199  A    between atoms: _505  and  _506
REMARK  200  A    between atoms: _505  and  _508
REMARK  201  A    between atoms: _508  and  _509
REMARK  202  A    between atoms: _514  and  _516
REMARK  203  A    between atoms: _516  and  _517
REMARK  204  A    between atoms: _516  and  _519
REMARK  205  A    between atoms: _519  and  _520
REMARK  206  A    between atoms: _522  and  _524
REMARK  207  A    between atoms: _524  and  _525
REMARK  208  A    between atoms: _524  and  _527
REMARK  209  A    between atoms: _527  and  _528
REMARK  210  A    between atoms: _528  and  _529
REMARK  211  A    between atoms: _532  and  _534
REMARK  212  A    between atoms: _534  and  _535
REMARK  213  A    between atoms: _534  and  _537
REMARK  214  A    between atoms: _537  and  _538
REMARK  215  A    between atoms: _543  and  _544
REMARK  216  A    between atoms: _546  and  _548
REMARK  217  A    between atoms: _548  and  _549
REMARK  218  A    between atoms: _552  and  _554
REMARK  219  A    between atoms: _554  and  _555
REMARK  220  A    between atoms: _554  and  _557
REMARK  221  A    between atoms: _557  and  _558
REMARK  222  A    between atoms: _562  and  _563
REMARK  223  A    between atoms: _568  and  _570
REMARK  224  A    between atoms: _570  and  _571
REMARK  225  A    between atoms: _570  and  _573
REMARK  226  A    between atoms: _573  and  _574
REMARK  227  A    between atoms: _577  and  _579
REMARK  228  A    between atoms: _579  and  _580
REMARK  229  A    between atoms: _579  and  _582
REMARK  230  A    between atoms: _582  and  _583
REMARK  231  A    between atoms: _583  and  _584
REMARK  232  A    between atoms: _589  and  _591
REMARK  233  A    between atoms: _591  and  _592
REMARK  234  A    between atoms: _591  and  _594
REMARK  235  A    between atoms: _594  and  _595
REMARK  236  A    between atoms: _598  and  _600
REMARK  237  A    between atoms: _600  and  _601
REMARK  238  A    between atoms: _600  and  _603
REMARK  239  A    between atoms: _603  and  _604
REMARK  240  A    between atoms: _607  and  _609
REMARK  241  A    between atoms: _609  and  _610
REMARK  242  A    between atoms: _609  and  _612
REMARK  243  A    between atoms: _612  and  _613
REMARK                            x       y       z     vdW  Elec       q    Type
REMARK                         _______ _______ _______ _____ _____    ______ ____
ROOT
ATOM      1  O   HOH     1      23.307  26.243  11.954  0.00  0.00    +0.000 OA
ENDROOT
TORSDOF 0
REMARK  Name = ../refined-set-2016/4f5y/4f5y_pocket.pdb
REMARK  243 active torsions:
REMARK  status: ('A' for Active; 'I' for Inactive)
REMARK    1  A    between atoms: _1  and  _3
REMARK    2  A    between atoms: _3  and  _4
REMARK    3  A    between atoms: _6  and  _8
REMARK    4  A    between atoms: _8  and  _9
REMARK    5  A    between atoms: _8  and  _11
REMARK    6  A    between atoms: _11  and  _12
REMARK    7  A    between atoms: _15  and  _17
REMARK    8  A    between atoms: _17  and  _18
REMARK    9  A    between atoms: _21  and  _23
REMARK   10  A    between atoms: _23  and  _24
REMARK   11  A    between atoms: _23  and  _26
REMARK   12  A    between atoms: _26  and  _27
REMARK   13  A    between atoms: _37  and  _39
REMARK   14  A    between atoms: _39  and  _40
REMARK   15  A    between atoms: _39  and  _42
REMARK   16  A    between atoms: _42  and  _43
REMARK   17  A    between atoms: _45  and  _47
REMARK   18  A    between atoms: _47  and  _48
REMARK   19  A    between atoms: _47  and  _50
REMARK   20  A    between atoms: _50  and  _51
REMARK   21  A    between atoms: _56  and  _57
REMARK   22  A    between atoms: _59  and  _61
REMARK   23  A    between atoms: _61  and  _62
REMARK   24  A    between atoms: _61  and  _64
REMARK   25  A    between atoms: _64  and  _65
REMARK   26  A    between atoms: _70  and  _71
REMARK   27  A    between atoms: _73  and  _75
REMARK   28  A    between atoms: _75  and  _76
REMARK   29  A    between atoms: _75  and  _78
REMARK   30  A    between atoms: _78  and  _79
REMARK   31  A    between atoms: _82  and  _84
REMARK   32  A    between atoms: _84  and  _85
REMARK   33  A    between atoms: _87  and  _89
REMARK   34  A    between atoms: _89  and  _90
REMARK   35  A    between atoms: _89  and  _92
REMARK   36  A    between atoms: _92  and  _93
REMARK   37  A    between atoms: _98  and  _99
REMARK   38  A    between atoms: _101  and  _103
REMARK   39  A    between atoms: _103  and  _104
REMARK   40  A    between atoms: _103  and  _106
REMARK   41  A    between atoms: _106  and  _107
REMARK   42  A    between atoms: _110  and  _112
REMARK   43  A    between atoms: _112  and  _113
REMARK   44  A    between atoms: _112  and  _115
REMARK   45  A    between atoms: _115  and  _116
REMARK   46  A    between atoms: _119  and  _121
REMARK   47  A    between atoms: _121  and  _122
REMARK   48  A    between atoms: _121  and  _124
REMARK   49  A    between atoms: _124  and  _125
REMARK   50  A    between atoms: _128  and  _130
REMARK   51  A    between atoms: _130  and  _131
REMARK   52  A    between atoms: _130  and  _133
REMARK   53  A    between atoms: _133  and  _134
REMARK   54  A    between atoms: _137  and  _139
REMARK   55  A    between atoms: _139  and  _140
REMARK   56  A    between atoms: _139  and  _142
REMARK   57  A    between atoms: _142  and  _143
REMARK   58  A    between atoms: _143  and  _144
REMARK   59  A    between atoms: _144  and  _145
REMARK   60  A    between atoms: _145  and  _146
REMARK   61  A    between atoms: _150  and  _152
REMARK   62  A    between atoms: _152  and  _153
REMARK   63  A    between atoms: _152  and  _155
REMARK   64  A    between atoms: _155  and  _156
REMARK   65  A    between atoms: _159  and  _161
REMARK   66  A    between atoms: _161  and  _162
REMARK   67  A    between atoms: _161  and  _164
REMARK   68  A    between atoms: _164  and  _165
REMARK   69  A    between atoms: _165  and  _166
REMARK   70  A    between atoms: _166  and  _167
REMARK   71  A    between atoms: _176  and  _178
REMARK   72  A    between atoms: _178  and  _179
REMARK   73  A    between atoms: _178  and  _181
REMARK   74  A    between atoms: _184  and  _186
REMARK   75  A    between atoms: _186  and  _187
REMARK   76  A    between atoms: _186  and  _189
REMARK   77  A    between atoms: _189  and  _190
REMARK   78  A    between atoms: _195  and  _196
REMARK   79  A    between atoms: _198  and  _200
REMARK   80  A    between atoms: _200  and  _201
REMARK   81  A    between atoms: _200  and  _203
REMARK   82  A    between atoms: _203  and  _204
REMARK   83  A    between atoms: _206  and  _208
REMARK   84  A    between atoms: _208  and  _209
REMARK   85  A    between atoms: _208  and  _211
REMARK   86  A    between atoms: _211  and  _212
REMARK   87  A    between atoms: _212  and  _213
REMARK   88  A    between atoms: _216  and  _218
REMARK   89  A    between atoms: _218  and  _219
REMARK   90  A    between atoms: _218  and  _221
REMARK   91  A    between atoms: _221  and  _222
REMARK   92  A    between atoms: _227  and  _228
REMARK   93  A    between atoms: _230  and  _232
REMARK   94  A    between atoms: _232  and  _233
REMARK   95  A    between atoms: _236  and  _238
REMARK   96  A    between atoms: _238  and  _239
REMARK   97  A    between atoms: _238  and  _241
REMARK   98  A    between atoms: _241  and  _242
REMARK   99  A    between atoms: _246  and  _247
REMARK  100  A    between atoms: _252  and  _254
REMARK  101  A    between atoms: _254  and  _255
REMARK  102  A    between atoms: _254  and  _257
REMARK  103  A    between atoms: _257  and  _258
REMARK  104  A    between atoms: _261  and  _263
REMARK  105  A    between atoms: _263  and  _264
REMARK  106  A    between atoms: _263  and  _266
REMARK  107  A    between atoms: _266  and  _267
REMARK  108  A    between atoms: _267  and  _268
REMARK  109  A    between atoms: _273  and  _275
REMARK  110  A    between atoms: _275  and  _276
REMARK  111  A    between atoms: _275  and  _278
REMARK  112  A    between atoms: _278  and  _279
REMARK  113  A    between atoms: _282  and  _284
REMARK  114  A    between atoms: _284  and  _285
REMARK  115  A    between atoms: _284  and  _287
REMARK  116  A    between atoms: _287  and  _288
REMARK  117  A    between atoms: _294  and  _296
REMARK  118  A    between atoms: _296  and  _297
REMARK  119  A    between atoms: _299  and  _301
REMARK  120  A    between atoms: _301  and  _302
REMARK  121  A    between atoms: _301  and  _304
REMARK  122  A    between atoms: _304  and  _305
REMARK  123  A    between atoms: _308  and  _310
REMARK  124  A    between atoms: _310  and  _311
REMARK  125  A    between atoms: _314  and  _316
REMARK  126  A    between atoms: _316  and  _317
REMARK  127  A    between atoms: _316  and  _319
REMARK  128  A    between atoms: _319  and  _320
REMARK  129  A    between atoms: _330  and  _332
REMARK  130  A    between atoms: _332  and  _333
REMARK  131  A    between atoms: _332  and  _335
REMARK  132  A    between atoms: _335  and  _336
REMARK  133  A    between atoms: _338  and  _340
REMARK  134  A    between atoms: _340  and  _341
REMARK  135  A    between atoms: _340  and  _343
REMARK  136  A    between atoms: _343  and  _344
REMARK  137  A    between atoms: _349  and  _350
REMARK  138  A    between atoms: _352  and  _354
REMARK  139  A    between atoms: _354  and  _355
REMARK  140  A    between atoms: _354  and  _357
REMARK  141  A    between atoms: _357  and  _358
REMARK  142  A    between atoms: _363  and  _364
REMARK  143  A    between atoms: _366  and  _368
REMARK  144  A    between atoms: _368  and  _369
REMARK  145  A    between atoms: _368  and  _371
REMARK  146  A    between atoms: _371  and  _372
REMARK  147  A    between atoms: _375  and  _377
REMARK  148  A    between atoms: _377  and  _378
REMARK  149  A    between atoms: _380  and  _382
REMARK  150  A    between atoms: _382  and  _383
REMARK  151  A    between atoms: _382  and  _385
REMARK  152  A    between atoms: _385  and  _386
REMARK  153  A    between atoms: _391  and  _392
REMARK  154  A    between atoms: _394  and  _396
REMARK  155  A    between atoms: _396  and  _397
REMARK  156  A    between atoms: _396  and  _399
REMARK  157  A    between atoms: _399  and  _400
REMARK  158  A    between atoms: _403  and  _405
REMARK  159  A    between atoms: _405  and  _406
REMARK  160  A    between atoms: _405  and  _408
REMARK  161  A    between atoms: _408  and  _409
REMARK  162  A    between atoms: _409  and  _410
REMARK  163  A    between atoms: _410  and  _411
REMARK  164  A    between atoms: _420  and  _422
REMARK  165  A    between atoms: _422  and  _423
REMARK  166  A    between atoms: _422  and  _425
REMARK  167  A    between atoms: _425  and  _426
REMARK  168  A    between atoms: _429  and  _431
REMARK  169  A    between atoms: _431  and  _432
REMARK  170  A    between atoms: _431  and  _434
REMARK  171  A    between atoms: _434  and  _435
REMARK  172  A    between atoms: _438  and  _440
REMARK  173  A    between atoms: _440  and  _441
REMARK  174  A    between atoms: _440  and  _443
REMARK  175  A    between atoms: _443  and  _444
REMARK  176  A    between atoms: _447  and  _449
REMARK  177  A    between atoms: _449  and  _450
REMARK  178  A    between atoms: _449  and  _452
REMARK  179  A    between atoms: _452  and  _453
REMARK  180  A    between atoms: _456  and  _458
REMARK  181  A    between atoms: _458  and  _459
REMARK  182  A    between atoms: _458  and  _461
REMARK  183  A    between atoms: _461  and  _462
REMARK  184  A    between atoms: _462  and  _463
REMARK  185  A    between atoms: _463  and  _464
REMARK  186  A    between atoms: _473  and  _475
REMARK  187  A    between atoms: _475  and  _476
REMARK  188  A    between atoms: _475  and  _478
REMARK  189  A    between atoms: _481  and  _483
REMARK  190  A    between atoms: _483  and  _484
REMARK  191  A    between atoms: _483  and  _486
REMARK  192  A    between atoms: _486  and  _487
REMARK  193  A    between atoms: _492  and  _493
REMARK  194  A    between atoms: _495  and  _497
REMARK  195  A    between atoms: _497  and  _498
REMARK  196  A    between atoms: _497  and  _500
REMARK  197  A    between atoms: _500  and  _501
REMARK  198  A    between atoms: _503  and  _505
REMARK  199  A    between atoms: _505  and  _506
REMARK  200  A    between atoms: _505  and  _508
REMARK  201  A    between atoms: _508  and  _509
REMARK  202  A    between atoms: _514  and  _516
REMARK  203  A    between atoms: _516  and  _517
REMARK  204  A    between atoms: _516  and  _519
REMARK  205  A    between atoms: _519  and  _520
REMARK  206  A    between atoms: _522  and  _524
REMARK  207  A    between atoms: _524  and  _525
REMARK  208  A    between atoms: _524  and  _527
REMARK  209  A    between atoms: _527  and  _528
REMARK  210  A    between atoms: _528  and  _529
REMARK  211  A    between atoms: _532  and  _534
REMARK  212  A    between atoms: _534  and  _535
REMARK  213  A    between atoms: _534  and  _537
REMARK  214  A    between atoms: _537  and  _538
REMARK  215  A    between atoms: _543  and  _544
REMARK  216  A    between atoms: _546  and  _548
REMARK  217  A    between atoms: _548  and  _549
REMARK  218  A    between atoms: _552  and  _554
REMARK  219  A    between atoms: _554  and  _555
REMARK  220  A    between atoms: _554  and  _557
REMARK  221  A    between atoms: _557  and  _558
REMARK  222  A    between atoms: _562  and  _563
REMARK  223  A    between atoms: _568  and  _570
REMARK  224  A    between atoms: _570  and  _571
REMARK  225  A    between atoms: _570  and  _573
REMARK  226  A    between atoms: _573  and  _574
REMARK  227  A    between atoms: _577  and  _579
REMARK  228  A    between atoms: _579  and  _580
REMARK  229  A    between atoms: _579  and  _582
REMARK  230  A    between atoms: _582  and  _583
REMARK  231  A    between atoms: _583  and  _584
REMARK  232  A    between atoms: _589  and  _591
REMARK  233  A    between atoms: _591  and  _592
REMARK  234  A    between atoms: _591  and  _594
REMARK  235  A    between atoms: _594  and  _595
REMARK  236  A    between atoms: _598  and  _600
REMARK  237  A    between atoms: _600  and  _601
REMARK  238  A    between atoms: _600  and  _603
REMARK  239  A    between atoms: _603  and  _604
REMARK  240  A    between atoms: _607  and  _609
REMARK  241  A    between atoms: _609  and  _610
REMARK  242  A    between atoms: _609  and  _612
REMARK  243  A    between atoms: _612  and  _613
REMARK                            x       y       z     vdW  Elec       q    Type
REMARK                         _______ _______ _______ _____ _____    ______ ____
ROOT
ATOM      1  O   HOH     1      23.334  18.479  18.279  0.00  0.00    +0.000 OA
ENDROOT
TORSDOF 0
REMARK  Name = ../refined-set-2016/4f5y/4f5y_pocket.pdb
REMARK  243 active torsions:
REMARK  status: ('A' for Active; 'I' for Inactive)
REMARK    1  A    between atoms: _1  and  _3
REMARK    2  A    between atoms: _3  and  _4
REMARK    3  A    between atoms: _6  and  _8
REMARK    4  A    between atoms: _8  and  _9
REMARK    5  A    between atoms: _8  and  _11
REMARK    6  A    between atoms: _11  and  _12
REMARK    7  A    between atoms: _15  and  _17
REMARK    8  A    between atoms: _17  and  _18
REMARK    9  A    between atoms: _21  and  _23
REMARK   10  A    between atoms: _23  and  _24
REMARK   11  A    between atoms: _23  and  _26
REMARK   12  A    between atoms: _26  and  _27
REMARK   13  A    between atoms: _37  and  _39
REMARK   14  A    between atoms: _39  and  _40
REMARK   15  A    between atoms: _39  and  _42
REMARK   16  A    between atoms: _42  and  _43
REMARK   17  A    between atoms: _45  and  _47
REMARK   18  A    between atoms: _47  and  _48
REMARK   19  A    between atoms: _47  and  _50
REMARK   20  A    between atoms: _50  and  _51
REMARK   21  A    between atoms: _56  and  _57
REMARK   22  A    between atoms: _59  and  _61
REMARK   23  A    between atoms: _61  and  _62
REMARK   24  A    between atoms: _61  and  _64
REMARK   25  A    between atoms: _64  and  _65
REMARK   26  A    between atoms: _70  and  _71
REMARK   27  A    between atoms: _73  and  _75
REMARK   28  A    between atoms: _75  and  _76
REMARK   29  A    between atoms: _75  and  _78
REMARK   30  A    between atoms: _78  and  _79
REMARK   31  A    between atoms: _82  and  _84
REMARK   32  A    between atoms: _84  and  _85
REMARK   33  A    between atoms: _87  and  _89
REMARK   34  A    between atoms: _89  and  _90
REMARK   35  A    between atoms: _89  and  _92
REMARK   36  A    between atoms: _92  and  _93
REMARK   37  A    between atoms: _98  and  _99
REMARK   38  A    between atoms: _101  and  _103
REMARK   39  A    between atoms: _103  and  _104
REMARK   40  A    between atoms: _103  and  _106
REMARK   41  A    between atoms: _106  and  _107
REMARK   42  A    between atoms: _110  and  _112
REMARK   43  A    between atoms: _112  and  _113
REMARK   44  A    between atoms: _112  and  _115
REMARK   45  A    between atoms: _115  and  _116
REMARK   46  A    between atoms: _119  and  _121
REMARK   47  A    between atoms: _121  and  _122
REMARK   48  A    between atoms: _121  and  _124
REMARK   49  A    between atoms: _124  and  _125
REMARK   50  A    between atoms: _128  and  _130
REMARK   51  A    between atoms: _130  and  _131
REMARK   52  A    between atoms: _130  and  _133
REMARK   53  A    between atoms: _133  and  _134
REMARK   54  A    between atoms: _137  and  _139
REMARK   55  A    between atoms: _139  and  _140
REMARK   56  A    between atoms: _139  and  _142
REMARK   57  A    between atoms: _142  and  _143
REMARK   58  A    between atoms: _143  and  _144
REMARK   59  A    between atoms: _144  and  _145
REMARK   60  A    between atoms: _145  and  _146
REMARK   61  A    between atoms: _150  and  _152
REMARK   62  A    between atoms: _152  and  _153
REMARK   63  A    between atoms: _152  and  _155
REMARK   64  A    between atoms: _155  and  _156
REMARK   65  A    between atoms: _159  and  _161
REMARK   66  A    between atoms: _161  and  _162
REMARK   67  A    between atoms: _161  and  _164
REMARK   68  A    between atoms: _164  and  _165
REMARK   69  A    between atoms: _165  and  _166
REMARK   70  A    between atoms: _166  and  _167
REMARK   71  A    between atoms: _176  and  _178
REMARK   72  A    between atoms: _178  and  _179
REMARK   73  A    between atoms: _178  and  _181
REMARK   74  A    between atoms: _184  and  _186
REMARK   75  A    between atoms: _186  and  _187
REMARK   76  A    between atoms: _186  and  _189
REMARK   77  A    between atoms: _189  and  _190
REMARK   78  A    between atoms: _195  and  _196
REMARK   79  A    between atoms: _198  and  _200
REMARK   80  A    between atoms: _200  and  _201
REMARK   81  A    between atoms: _200  and  _203
REMARK   82  A    between atoms: _203  and  _204
REMARK   83  A    between atoms: _206  and  _208
REMARK   84  A    between atoms: _208  and  _209
REMARK   85  A    between atoms: _208  and  _211
REMARK   86  A    between atoms: _211  and  _212
REMARK   87  A    between atoms: _212  and  _213
REMARK   88  A    between atoms: _216  and  _218
REMARK   89  A    between atoms: _218  and  _219
REMARK   90  A    between atoms: _218  and  _221
REMARK   91  A    between atoms: _221  and  _222
REMARK   92  A    between atoms: _227  and  _228
REMARK   93  A    between atoms: _230  and  _232
REMARK   94  A    between atoms: _232  and  _233
REMARK   95  A    between atoms: _236  and  _238
REMARK   96  A    between atoms: _238  and  _239
REMARK   97  A    between atoms: _238  and  _241
REMARK   98  A    between atoms: _241  and  _242
REMARK   99  A    between atoms: _246  and  _247
REMARK  100  A    between atoms: _252  and  _254
REMARK  101  A    between atoms: _254  and  _255
REMARK  102  A    between atoms: _254  and  _257
REMARK  103  A    between atoms: _257  and  _258
REMARK  104  A    between atoms: _261  and  _263
REMARK  105  A    between atoms: _263  and  _264
REMARK  106  A    between atoms: _263  and  _266
REMARK  107  A    between atoms: _266  and  _267
REMARK  108  A    between atoms: _267  and  _268
REMARK  109  A    between atoms: _273  and  _275
REMARK  110  A    between atoms: _275  and  _276
REMARK  111  A    between atoms: _275  and  _278
REMARK  112  A    between atoms: _278  and  _279
REMARK  113  A    between atoms: _282  and  _284
REMARK  114  A    between atoms: _284  and  _285
REMARK  115  A    between atoms: _284  and  _287
REMARK  116  A    between atoms: _287  and  _288
REMARK  117  A    between atoms: _294  and  _296
REMARK  118  A    between atoms: _296  and  _297
REMARK  119  A    between atoms: _299  and  _301
REMARK  120  A    between atoms: _301  and  _302
REMARK  121  A    between atoms: _301  and  _304
REMARK  122  A    between atoms: _304  and  _305
REMARK  123  A    between atoms: _308  and  _310
REMARK  124  A    between atoms: _310  and  _311
REMARK  125  A    between atoms: _314  and  _316
REMARK  126  A    between atoms: _316  and  _317
REMARK  127  A    between atoms: _316  and  _319
REMARK  128  A    between atoms: _319  and  _320
REMARK  129  A    between atoms: _330  and  _332
REMARK  130  A    between atoms: _332  and  _333
REMARK  131  A    between atoms: _332  and  _335
REMARK  132  A    between atoms: _335  and  _336
REMARK  133  A    between atoms: _338  and  _340
REMARK  134  A    between atoms: _340  and  _341
REMARK  135  A    between atoms: _340  and  _343
REMARK  136  A    between atoms: _343  and  _344
REMARK  137  A    between atoms: _349  and  _350
REMARK  138  A    between atoms: _352  and  _354
REMARK  139  A    between atoms: _354  and  _355
REMARK  140  A    between atoms: _354  and  _357
REMARK  141  A    between atoms: _357  and  _358
REMARK  142  A    between atoms: _363  and  _364
REMARK  143  A    between atoms: _366  and  _368
REMARK  144  A    between atoms: _368  and  _369
REMARK  145  A    between atoms: _368  and  _371
REMARK  146  A    between atoms: _371  and  _372
REMARK  147  A    between atoms: _375  and  _377
REMARK  148  A    between atoms: _377  and  _378
REMARK  149  A    between atoms: _380  and  _382
REMARK  150  A    between atoms: _382  and  _383
REMARK  151  A    between atoms: _382  and  _385
REMARK  152  A    between atoms: _385  and  _386
REMARK  153  A    between atoms: _391  and  _392
REMARK  154  A    between atoms: _394  and  _396
REMARK  155  A    between atoms: _396  and  _397
REMARK  156  A    between atoms: _396  and  _399
REMARK  157  A    between atoms: _399  and  _400
REMARK  158  A    between atoms: _403  and  _405
REMARK  159  A    between atoms: _405  and  _406
REMARK  160  A    between atoms: _405  and  _408
REMARK  161  A    between atoms: _408  and  _409
REMARK  162  A    between atoms: _409  and  _410
REMARK  163  A    between atoms: _410  and  _411
REMARK  164  A    between atoms: _420  and  _422
REMARK  165  A    between atoms: _422  and  _423
REMARK  166  A    between atoms: _422  and  _425
REMARK  167  A    between atoms: _425  and  _426
REMARK  168  A    between atoms: _429  and  _431
REMARK  169  A    between atoms: _431  and  _432
REMARK  170  A    between atoms: _431  and  _434
REMARK  171  A    between atoms: _434  and  _435
REMARK  172  A    between atoms: _438  and  _440
REMARK  173  A    between atoms: _440  and  _441
REMARK  174  A    between atoms: _440  and  _443
REMARK  175  A    between atoms: _443  and  _444
REMARK  176  A    between atoms: _447  and  _449
REMARK  177  A    between atoms: _449  and  _450
REMARK  178  A    between atoms: _449  and  _452
REMARK  179  A    between atoms: _452  and  _453
REMARK  180  A    between atoms: _456  and  _458
REMARK  181  A    between atoms: _458  and  _459
REMARK  182  A    between atoms: _458  and  _461
REMARK  183  A    between atoms: _461  and  _462
REMARK  184  A    between atoms: _462  and  _463
REMARK  185  A    between atoms: _463  and  _464
REMARK  186  A    between atoms: _473  and  _475
REMARK  187  A    between atoms: _475  and  _476
REMARK  188  A    between atoms: _475  and  _478
REMARK  189  A    between atoms: _481  and  _483
REMARK  190  A    between atoms: _483  and  _484
REMARK  191  A    between atoms: _483  and  _486
REMARK  192  A    between atoms: _486  and  _487
REMARK  193  A    between atoms: _492  and  _493
REMARK  194  A    between atoms: _495  and  _497
REMARK  195  A    between atoms: _497  and  _498
REMARK  196  A    between atoms: _497  and  _500
REMARK  197  A    between atoms: _500  and  _501
REMARK  198  A    between atoms: _503  and  _505
REMARK  199  A    between atoms: _505  and  _506
REMARK  200  A    between atoms: _505  and  _508
REMARK  201  A    between atoms: _508  and  _509
REMARK  202  A    between atoms: _514  and  _516
REMARK  203  A    between atoms: _516  and  _517
REMARK  204  A    between atoms: _516  and  _519
REMARK  205  A    between atoms: _519  and  _520
REMARK  206  A    between atoms: _522  and  _524
REMARK  207  A    between atoms: _524  and  _525
REMARK  208  A    between atoms: _524  and  _527
REMARK  209  A    between atoms: _527  and  _528
REMARK  210  A    between atoms: _528  and  _529
REMARK  211  A    between atoms: _532  and  _534
REMARK  212  A    between atoms: _534  and  _535
REMARK  213  A    between atoms: _534  and  _537
REMARK  214  A    between atoms: _537  and  _538
REMARK  215  A    between atoms: _543  and  _544
REMARK  216  A    between atoms: _546  and  _548
REMARK  217  A    between atoms: _548  and  _549
REMARK  218  A    between atoms: _552  and  _554
REMARK  219  A    between atoms: _554  and  _555
REMARK  220  A    between atoms: _554  and  _557
REMARK  221  A    between atoms: _557  and  _558
REMARK  222  A    between atoms: _562  and  _563
REMARK  223  A    between atoms: _568  and  _570
REMARK  224  A    between atoms: _570  and  _571
REMARK  225  A    between atoms: _570  and  _573
REMARK  226  A    between atoms: _573  and  _574
REMARK  227  A    between atoms: _577  and  _579
REMARK  228  A    between atoms: _579  and  _580
REMARK  229  A    between atoms: _579  and  _582
REMARK  230  A    between atoms: _582  and  _583
REMARK  231  A    between atoms: _583  and  _584
REMARK  232  A    between atoms: _589  and  _591
REMARK  233  A    between atoms: _591  and  _592
REMARK  234  A    between atoms: _591  and  _594
REMARK  235  A    between atoms: _594  and  _595
REMARK  236  A    between atoms: _598  and  _600
REMARK  237  A    between atoms: _600  and  _601
REMARK  238  A    between atoms: _600  and  _603
REMARK  239  A    between atoms: _603  and  _604
REMARK  240  A    between atoms: _607  and  _609
REMARK  241  A    between atoms: _609  and  _610
REMARK  242  A    between atoms: _609  and  _612
REMARK  243  A    between atoms: _612  and  _613
REMARK                            x       y       z     vdW  Elec       q    Type
REMARK                         _______ _______ _______ _____ _____    ______ ____
ROOT
ATOM      1  O   HOH     1      23.726  33.435  12.257  0.00  0.00    +0.000 OA
ENDROOT
TORSDOF 0
REMARK  Name = ../refined-set-2016/4f5y/4f5y_pocket.pdb
REMARK  243 active torsions:
REMARK  status: ('A' for Active; 'I' for Inactive)
REMARK    1  A    between atoms: _1  and  _3
REMARK    2  A    between atoms: _3  and  _4
REMARK    3  A    between atoms: _6  and  _8
REMARK    4  A    between atoms: _8  and  _9
REMARK    5  A    between atoms: _8  and  _11
REMARK    6  A    between atoms: _11  and  _12
REMARK    7  A    between atoms: _15  and  _17
REMARK    8  A    between atoms: _17  and  _18
REMARK    9  A    between atoms: _21  and  _23
REMARK   10  A    between atoms: _23  and  _24
REMARK   11  A    between atoms: _23  and  _26
REMARK   12  A    between atoms: _26  and  _27
REMARK   13  A    between atoms: _37  and  _39
REMARK   14  A    between atoms: _39  and  _40
REMARK   15  A    between atoms: _39  and  _42
REMARK   16  A    between atoms: _42  and  _43
REMARK   17  A    between atoms: _45  and  _47
REMARK   18  A    between atoms: _47  and  _48
REMARK   19  A    between atoms: _47  and  _50
REMARK   20  A    between atoms: _50  and  _51
REMARK   21  A    between atoms: _56  and  _57
REMARK   22  A    between atoms: _59  and  _61
REMARK   23  A    between atoms: _61  and  _62
REMARK   24  A    between atoms: _61  and  _64
REMARK   25  A    between atoms: _64  and  _65
REMARK   26  A    between atoms: _70  and  _71
REMARK   27  A    between atoms: _73  and  _75
REMARK   28  A    between atoms: _75  and  _76
REMARK   29  A    between atoms: _75  and  _78
REMARK   30  A    between atoms: _78  and  _79
REMARK   31  A    between atoms: _82  and  _84
REMARK   32  A    between atoms: _84  and  _85
REMARK   33  A    between atoms: _87  and  _89
REMARK   34  A    between atoms: _89  and  _90
REMARK   35  A    between atoms: _89  and  _92
REMARK   36  A    between atoms: _92  and  _93
REMARK   37  A    between atoms: _98  and  _99
REMARK   38  A    between atoms: _101  and  _103
REMARK   39  A    between atoms: _103  and  _104
REMARK   40  A    between atoms: _103  and  _106
REMARK   41  A    between atoms: _106  and  _107
REMARK   42  A    between atoms: _110  and  _112
REMARK   43  A    between atoms: _112  and  _113
REMARK   44  A    between atoms: _112  and  _115
REMARK   45  A    between atoms: _115  and  _116
REMARK   46  A    between atoms: _119  and  _121
REMARK   47  A    between atoms: _121  and  _122
REMARK   48  A    between atoms: _121  and  _124
REMARK   49  A    between atoms: _124  and  _125
REMARK   50  A    between atoms: _128  and  _130
REMARK   51  A    between atoms: _130  and  _131
REMARK   52  A    between atoms: _130  and  _133
REMARK   53  A    between atoms: _133  and  _134
REMARK   54  A    between atoms: _137  and  _139
REMARK   55  A    between atoms: _139  and  _140
REMARK   56  A    between atoms: _139  and  _142
REMARK   57  A    between atoms: _142  and  _143
REMARK   58  A    between atoms: _143  and  _144
REMARK   59  A    between atoms: _144  and  _145
REMARK   60  A    between atoms: _145  and  _146
REMARK   61  A    between atoms: _150  and  _152
REMARK   62  A    between atoms: _152  and  _153
REMARK   63  A    between atoms: _152  and  _155
REMARK   64  A    between atoms: _155  and  _156
REMARK   65  A    between atoms: _159  and  _161
REMARK   66  A    between atoms: _161  and  _162
REMARK   67  A    between atoms: _161  and  _164
REMARK   68  A    between atoms: _164  and  _165
REMARK   69  A    between atoms: _165  and  _166
REMARK   70  A    between atoms: _166  and  _167
REMARK   71  A    between atoms: _176  and  _178
REMARK   72  A    between atoms: _178  and  _179
REMARK   73  A    between atoms: _178  and  _181
REMARK   74  A    between atoms: _184  and  _186
REMARK   75  A    between atoms: _186  and  _187
REMARK   76  A    between atoms: _186  and  _189
REMARK   77  A    between atoms: _189  and  _190
REMARK   78  A    between atoms: _195  and  _196
REMARK   79  A    between atoms: _198  and  _200
REMARK   80  A    between atoms: _200  and  _201
REMARK   81  A    between atoms: _200  and  _203
REMARK   82  A    between atoms: _203  and  _204
REMARK   83  A    between atoms: _206  and  _208
REMARK   84  A    between atoms: _208  and  _209
REMARK   85  A    between atoms: _208  and  _211
REMARK   86  A    between atoms: _211  and  _212
REMARK   87  A    between atoms: _212  and  _213
REMARK   88  A    between atoms: _216  and  _218
REMARK   89  A    between atoms: _218  and  _219
REMARK   90  A    between atoms: _218  and  _221
REMARK   91  A    between atoms: _221  and  _222
REMARK   92  A    between atoms: _227  and  _228
REMARK   93  A    between atoms: _230  and  _232
REMARK   94  A    between atoms: _232  and  _233
REMARK   95  A    between atoms: _236  and  _238
REMARK   96  A    between atoms: _238  and  _239
REMARK   97  A    between atoms: _238  and  _241
REMARK   98  A    between atoms: _241  and  _242
REMARK   99  A    between atoms: _246  and  _247
REMARK  100  A    between atoms: _252  and  _254
REMARK  101  A    between atoms: _254  and  _255
REMARK  102  A    between atoms: _254  and  _257
REMARK  103  A    between atoms: _257  and  _258
REMARK  104  A    between atoms: _261  and  _263
REMARK  105  A    between atoms: _263  and  _264
REMARK  106  A    between atoms: _263  and  _266
REMARK  107  A    between atoms: _266  and  _267
REMARK  108  A    between atoms: _267  and  _268
REMARK  109  A    between atoms: _273  and  _275
REMARK  110  A    between atoms: _275  and  _276
REMARK  111  A    between atoms: _275  and  _278
REMARK  112  A    between atoms: _278  and  _279
REMARK  113  A    between atoms: _282  and  _284
REMARK  114  A    between atoms: _284  and  _285
REMARK  115  A    between atoms: _284  and  _287
REMARK  116  A    between atoms: _287  and  _288
REMARK  117  A    between atoms: _294  and  _296
REMARK  118  A    between atoms: _296  and  _297
REMARK  119  A    between atoms: _299  and  _301
REMARK  120  A    between atoms: _301  and  _302
REMARK  121  A    between atoms: _301  and  _304
REMARK  122  A    between atoms: _304  and  _305
REMARK  123  A    between atoms: _308  and  _310
REMARK  124  A    between atoms: _310  and  _311
REMARK  125  A    between atoms: _314  and  _316
REMARK  126  A    between atoms: _316  and  _317
REMARK  127  A    between atoms: _316  and  _319
REMARK  128  A    between atoms: _319  and  _320
REMARK  129  A    between atoms: _330  and  _332
REMARK  130  A    between atoms: _332  and  _333
REMARK  131  A    between atoms: _332  and  _335
REMARK  132  A    between atoms: _335  and  _336
REMARK  133  A    between atoms: _338  and  _340
REMARK  134  A    between atoms: _340  and  _341
REMARK  135  A    between atoms: _340  and  _343
REMARK  136  A    between atoms: _343  and  _344
REMARK  137  A    between atoms: _349  and  _350
REMARK  138  A    between atoms: _352  and  _354
REMARK  139  A    between atoms: _354  and  _355
REMARK  140  A    between atoms: _354  and  _357
REMARK  141  A    between atoms: _357  and  _358
REMARK  142  A    between atoms: _363  and  _364
REMARK  143  A    between atoms: _366  and  _368
REMARK  144  A    between atoms: _368  and  _369
REMARK  145  A    between atoms: _368  and  _371
REMARK  146  A    between atoms: _371  and  _372
REMARK  147  A    between atoms: _375  and  _377
REMARK  148  A    between atoms: _377  and  _378
REMARK  149  A    between atoms: _380  and  _382
REMARK  150  A    between atoms: _382  and  _383
REMARK  151  A    between atoms: _382  and  _385
REMARK  152  A    between atoms: _385  and  _386
REMARK  153  A    between atoms: _391  and  _392
REMARK  154  A    between atoms: _394  and  _396
REMARK  155  A    between atoms: _396  and  _397
REMARK  156  A    between atoms: _396  and  _399
REMARK  157  A    between atoms: _399  and  _400
REMARK  158  A    between atoms: _403  and  _405
REMARK  159  A    between atoms: _405  and  _406
REMARK  160  A    between atoms: _405  and  _408
REMARK  161  A    between atoms: _408  and  _409
REMARK  162  A    between atoms: _409  and  _410
REMARK  163  A    between atoms: _410  and  _411
REMARK  164  A    between atoms: _420  and  _422
REMARK  165  A    between atoms: _422  and  _423
REMARK  166  A    between atoms: _422  and  _425
REMARK  167  A    between atoms: _425  and  _426
REMARK  168  A    between atoms: _429  and  _431
REMARK  169  A    between atoms: _431  and  _432
REMARK  170  A    between atoms: _431  and  _434
REMARK  171  A    between atoms: _434  and  _435
REMARK  172  A    between atoms: _438  and  _440
REMARK  173  A    between atoms: _440  and  _441
REMARK  174  A    between atoms: _440  and  _443
REMARK  175  A    between atoms: _443  and  _444
REMARK  176  A    between atoms: _447  and  _449
REMARK  177  A    between atoms: _449  and  _450
REMARK  178  A    between atoms: _449  and  _452
REMARK  179  A    between atoms: _452  and  _453
REMARK  180  A    between atoms: _456  and  _458
REMARK  181  A    between atoms: _458  and  _459
REMARK  182  A    between atoms: _458  and  _461
REMARK  183  A    between atoms: _461  and  _462
REMARK  184  A    between atoms: _462  and  _463
REMARK  185  A    between atoms: _463  and  _464
REMARK  186  A    between atoms: _473  and  _475
REMARK  187  A    between atoms: _475  and  _476
REMARK  188  A    between atoms: _475  and  _478
REMARK  189  A    between atoms: _481  and  _483
REMARK  190  A    between atoms: _483  and  _484
REMARK  191  A    between atoms: _483  and  _486
REMARK  192  A    between atoms: _486  and  _487
REMARK  193  A    between atoms: _492  and  _493
REMARK  194  A    between atoms: _495  and  _497
REMARK  195  A    between atoms: _497  and  _498
REMARK  196  A    between atoms: _497  and  _500
REMARK  197  A    between atoms: _500  and  _501
REMARK  198  A    between atoms: _503  and  _505
REMARK  199  A    between atoms: _505  and  _506
REMARK  200  A    between atoms: _505  and  _508
REMARK  201  A    between atoms: _508  and  _509
REMARK  202  A    between atoms: _514  and  _516
REMARK  203  A    between atoms: _516  and  _517
REMARK  204  A    between atoms: _516  and  _519
REMARK  205  A    between atoms: _519  and  _520
REMARK  206  A    between atoms: _522  and  _524
REMARK  207  A    between atoms: _524  and  _525
REMARK  208  A    between atoms: _524  and  _527
REMARK  209  A    between atoms: _527  and  _528
REMARK  210  A    between atoms: _528  and  _529
REMARK  211  A    between atoms: _532  and  _534
REMARK  212  A    between atoms: _534  and  _535
REMARK  213  A    between atoms: _534  and  _537
REMARK  214  A    between atoms: _537  and  _538
REMARK  215  A    between atoms: _543  and  _544
REMARK  216  A    between atoms: _546  and  _548
REMARK  217  A    between atoms: _548  and  _549
REMARK  218  A    between atoms: _552  and  _554
REMARK  219  A    between atoms: _554  and  _555
REMARK  220  A    between atoms: _554  and  _557
REMARK  221  A    between atoms: _557  and  _558
REMARK  222  A    between atoms: _562  and  _563
REMARK  223  A    between atoms: _568  and  _570
REMARK  224  A    between atoms: _570  and  _571
REMARK  225  A    between atoms: _570  and  _573
REMARK  226  A    between atoms: _573  and  _574
REMARK  227  A    between atoms: _577  and  _579
REMARK  228  A    between atoms: _579  and  _580
REMARK  229  A    between atoms: _579  and  _582
REMARK  230  A    between atoms: _582  and  _583
REMARK  231  A    between atoms: _583  and  _584
REMARK  232  A    between atoms: _589  and  _591
REMARK  233  A    between atoms: _591  and  _592
REMARK  234  A    between atoms: _591  and  _594
REMARK  235  A    between atoms: _594  and  _595
REMARK  236  A    between atoms: _598  and  _600
REMARK  237  A    between atoms: _600  and  _601
REMARK  238  A    between atoms: _600  and  _603
REMARK  239  A    between atoms: _603  and  _604
REMARK  240  A    between atoms: _607  and  _609
REMARK  241  A    between atoms: _609  and  _610
REMARK  242  A    between atoms: _609  and  _612
REMARK  243  A    between atoms: _612  and  _613
REMARK                            x       y       z     vdW  Elec       q    Type
REMARK                         _______ _______ _______ _____ _____    ______ ____
ROOT
ATOM      1  O   HOH     1      13.264  27.804  21.276  0.00  0.00    +0.000 OA
ENDROOT
TORSDOF 0
