REMARK  Name = ../refined-set-2016/1k1y/1k1y_pocket.pdb
REMARK  242 active torsions:
REMARK  status: ('A' for Active; 'I' for Inactive)
REMARK    1  A    between atoms: _1  and  _3
REMARK    2  A    between atoms: _3  and  _4
REMARK    3  A    between atoms: _3  and  _6
REMARK    4  A    between atoms: _6  and  _7
REMARK    5  A    between atoms: _12  and  _14
REMARK    6  A    between atoms: _14  and  _15
REMARK    7  A    between atoms: _14  and  _17
REMARK    8  A    between atoms: _17  and  _18
REMARK    9  A    between atoms: _23  and  _25
REMARK   10  A    between atoms: _25  and  _26
REMARK   11  A    between atoms: _25  and  _28
REMARK   12  A    between atoms: _28  and  _29
REMARK   13  A    between atoms: _34  and  _36
REMARK   14  A    between atoms: _36  and  _37
REMARK   15  A    between atoms: _36  and  _39
REMARK   16  A    between atoms: _39  and  _40
REMARK   17  A    between atoms: _40  and  _41
REMARK   18  A    between atoms: _47  and  _48
REMARK   19  A    between atoms: _53  and  _55
REMARK   20  A    between atoms: _55  and  _56
REMARK   21  A    between atoms: _55  and  _58
REMARK   22  A    between atoms: _58  and  _59
REMARK   23  A    between atoms: _64  and  _66
REMARK   24  A    between atoms: _66  and  _67
REMARK   25  A    between atoms: _66  and  _69
REMARK   26  A    between atoms: _69  and  _70
REMARK   27  A    between atoms: _75  and  _76
REMARK   28  A    between atoms: _78  and  _80
REMARK   29  A    between atoms: _80  and  _81
REMARK   30  A    between atoms: _80  and  _83
REMARK   31  A    between atoms: _83  and  _84
REMARK   32  A    between atoms: _89  and  _91
REMARK   33  A    between atoms: _91  and  _92
REMARK   34  A    between atoms: _91  and  _94
REMARK   35  A    between atoms: _94  and  _95
REMARK   36  A    between atoms: _95  and  _96
REMARK   37  A    between atoms: _99  and  _101
REMARK   38  A    between atoms: _101  and  _102
REMARK   39  A    between atoms: _101  and  _104
REMARK   40  A    between atoms: _104  and  _105
REMARK   41  A    between atoms: _115  and  _117
REMARK   42  A    between atoms: _117  and  _118
REMARK   43  A    between atoms: _117  and  _120
REMARK   44  A    between atoms: _120  and  _121
REMARK   45  A    between atoms: _124  and  _126
REMARK   46  A    between atoms: _126  and  _127
REMARK   47  A    between atoms: _126  and  _129
REMARK   48  A    between atoms: _129  and  _130
REMARK   49  A    between atoms: _133  and  _135
REMARK   50  A    between atoms: _135  and  _136
REMARK   51  A    between atoms: _135  and  _138
REMARK   52  A    between atoms: _138  and  _139
REMARK   53  A    between atoms: _139  and  _140
REMARK   54  A    between atoms: _143  and  _145
REMARK   55  A    between atoms: _145  and  _146
REMARK   56  A    between atoms: _145  and  _148
REMARK   57  A    between atoms: _148  and  _149
REMARK   58  A    between atoms: _149  and  _150
REMARK   59  A    between atoms: _150  and  _151
REMARK   60  A    between atoms: _160  and  _162
REMARK   61  A    between atoms: _162  and  _163
REMARK   62  A    between atoms: _162  and  _165
REMARK   63  A    between atoms: _165  and  _166
REMARK   64  A    between atoms: _169  and  _171
REMARK   65  A    between atoms: _171  and  _172
REMARK   66  A    between atoms: _171  and  _174
REMARK   67  A    between atoms: _174  and  _175
REMARK   68  A    between atoms: _178  and  _180
REMARK   69  A    between atoms: _180  and  _181
REMARK   70  A    between atoms: _180  and  _183
REMARK   71  A    between atoms: _183  and  _184
REMARK   72  A    between atoms: _187  and  _189
REMARK   73  A    between atoms: _189  and  _190
REMARK   74  A    between atoms: _189  and  _192
REMARK   75  A    between atoms: _192  and  _193
REMARK   76  A    between atoms: _193  and  _194
REMARK   77  A    between atoms: _197  and  _199
REMARK   78  A    between atoms: _199  and  _200
REMARK   79  A    between atoms: _199  and  _202
REMARK   80  A    between atoms: _202  and  _203
REMARK   81  A    between atoms: _203  and  _204
REMARK   82  A    between atoms: _204  and  _205
REMARK   83  A    between atoms: _205  and  _206
REMARK   84  A    between atoms: _210  and  _212
REMARK   85  A    between atoms: _212  and  _213
REMARK   86  A    between atoms: _212  and  _215
REMARK   87  A    between atoms: _215  and  _216
REMARK   88  A    between atoms: _219  and  _221
REMARK   89  A    between atoms: _221  and  _222
REMARK   90  A    between atoms: _221  and  _224
REMARK   91  A    between atoms: _224  and  _225
REMARK   92  A    between atoms: _225  and  _226
REMARK   93  A    between atoms: _226  and  _227
REMARK   94  A    between atoms: _236  and  _238
REMARK   95  A    between atoms: _238  and  _239
REMARK   96  A    between atoms: _238  and  _241
REMARK   97  A    between atoms: _241  and  _242
REMARK   98  A    between atoms: _247  and  _248
REMARK   99  A    between atoms: _250  and  _252
REMARK  100  A    between atoms: _252  and  _253
REMARK  101  A    between atoms: _252  and  _255
REMARK  102  A    between atoms: _255  and  _256
REMARK  103  A    between atoms: _259  and  _261
REMARK  104  A    between atoms: _261  and  _262
REMARK  105  A    between atoms: _261  and  _264
REMARK  106  A    between atoms: _264  and  _265
REMARK  107  A    between atoms: _269  and  _270
REMARK  108  A    between atoms: _275  and  _277
REMARK  109  A    between atoms: _277  and  _278
REMARK  110  A    between atoms: _277  and  _280
REMARK  111  A    between atoms: _280  and  _281
REMARK  112  A    between atoms: _287  and  _289
REMARK  113  A    between atoms: _289  and  _290
REMARK  114  A    between atoms: _289  and  _292
REMARK  115  A    between atoms: _292  and  _293
REMARK  116  A    between atoms: _293  and  _294
REMARK  117  A    between atoms: _294  and  _295
REMARK  118  A    between atoms: _304  and  _306
REMARK  119  A    between atoms: _306  and  _307
REMARK  120  A    between atoms: _306  and  _309
REMARK  121  A    between atoms: _309  and  _310
REMARK  122  A    between atoms: _316  and  _318
REMARK  123  A    between atoms: _318  and  _319
REMARK  124  A    between atoms: _318  and  _321
REMARK  125  A    between atoms: _321  and  _322
REMARK  126  A    between atoms: _327  and  _329
REMARK  127  A    between atoms: _329  and  _330
REMARK  128  A    between atoms: _329  and  _332
REMARK  129  A    between atoms: _332  and  _333
REMARK  130  A    between atoms: _336  and  _338
REMARK  131  A    between atoms: _338  and  _339
REMARK  132  A    between atoms: _338  and  _341
REMARK  133  A    between atoms: _341  and  _342
REMARK  134  A    between atoms: _345  and  _347
REMARK  135  A    between atoms: _347  and  _348
REMARK  136  A    between atoms: _350  and  _352
REMARK  137  A    between atoms: _352  and  _353
REMARK  138  A    between atoms: _352  and  _355
REMARK  139  A    between atoms: _355  and  _356
REMARK  140  A    between atoms: _356  and  _357
REMARK  141  A    between atoms: _360  and  _362
REMARK  142  A    between atoms: _362  and  _363
REMARK  143  A    between atoms: _362  and  _365
REMARK  144  A    between atoms: _365  and  _366
REMARK  145  A    between atoms: _366  and  _367
REMARK  146  A    between atoms: _367  and  _368
REMARK  147  A    between atoms: _368  and  _369
REMARK  148  A    between atoms: _373  and  _375
REMARK  149  A    between atoms: _375  and  _376
REMARK  150  A    between atoms: _375  and  _378
REMARK  151  A    between atoms: _378  and  _379
REMARK  152  A    between atoms: _390  and  _391
REMARK  153  A    between atoms: _396  and  _398
REMARK  154  A    between atoms: _398  and  _399
REMARK  155  A    between atoms: _401  and  _403
REMARK  156  A    between atoms: _403  and  _404
REMARK  157  A    between atoms: _403  and  _406
REMARK  158  A    between atoms: _406  and  _407
REMARK  159  A    between atoms: _410  and  _412
REMARK  160  A    between atoms: _412  and  _413
REMARK  161  A    between atoms: _412  and  _415
REMARK  162  A    between atoms: _415  and  _416
REMARK  163  A    between atoms: _418  and  _420
REMARK  164  A    between atoms: _420  and  _421
REMARK  165  A    between atoms: _420  and  _423
REMARK  166  A    between atoms: _423  and  _424
REMARK  167  A    between atoms: _429  and  _430
REMARK  168  A    between atoms: _432  and  _434
REMARK  169  A    between atoms: _434  and  _435
REMARK  170  A    between atoms: _434  and  _437
REMARK  171  A    between atoms: _437  and  _438
REMARK  172  A    between atoms: _444  and  _446
REMARK  173  A    between atoms: _446  and  _447
REMARK  174  A    between atoms: _446  and  _449
REMARK  175  A    between atoms: _449  and  _450
REMARK  176  A    between atoms: _450  and  _451
REMARK  177  A    between atoms: _454  and  _456
REMARK  178  A    between atoms: _456  and  _457
REMARK  179  A    between atoms: _456  and  _459
REMARK  180  A    between atoms: _459  and  _460
REMARK  181  A    between atoms: _460  and  _461
REMARK  182  A    between atoms: _463  and  _465
REMARK  183  A    between atoms: _465  and  _466
REMARK  184  A    between atoms: _465  and  _468
REMARK  185  A    between atoms: _468  and  _469
REMARK  186  A    between atoms: _479  and  _481
REMARK  187  A    between atoms: _481  and  _482
REMARK  188  A    between atoms: _481  and  _484
REMARK  189  A    between atoms: _484  and  _485
REMARK  190  A    between atoms: _495  and  _497
REMARK  191  A    between atoms: _497  and  _498
REMARK  192  A    between atoms: _497  and  _500
REMARK  193  A    between atoms: _500  and  _501
REMARK  194  A    between atoms: _506  and  _508
REMARK  195  A    between atoms: _508  and  _509
REMARK  196  A    between atoms: _508  and  _511
REMARK  197  A    between atoms: _511  and  _512
REMARK  198  A    between atoms: _515  and  _517
REMARK  199  A    between atoms: _517  and  _518
REMARK  200  A    between atoms: _521  and  _523
REMARK  201  A    between atoms: _523  and  _524
REMARK  202  A    between atoms: _523  and  _526
REMARK  203  A    between atoms: _526  and  _527
REMARK  204  A    between atoms: _532  and  _533
REMARK  205  A    between atoms: _535  and  _537
REMARK  206  A    between atoms: _537  and  _538
REMARK  207  A    between atoms: _537  and  _540
REMARK  208  A    between atoms: _540  and  _541
REMARK  209  A    between atoms: _551  and  _553
REMARK  210  A    between atoms: _553  and  _554
REMARK  211  A    between atoms: _553  and  _556
REMARK  212  A    between atoms: _556  and  _557
REMARK  213  A    between atoms: _562  and  _564
REMARK  214  A    between atoms: _564  and  _565
REMARK  215  A    between atoms: _567  and  _569
REMARK  216  A    between atoms: _569  and  _570
REMARK  217  A    between atoms: _569  and  _572
REMARK  218  A    between atoms: _575  and  _577
REMARK  219  A    between atoms: _577  and  _578
REMARK  220  A    between atoms: _577  and  _580
REMARK  221  A    between atoms: _580  and  _581
REMARK  222  A    between atoms: _587  and  _589
REMARK  223  A    between atoms: _589  and  _590
REMARK  224  A    between atoms: _592  and  _594
REMARK  225  A    between atoms: _594  and  _595
REMARK  226  A    between atoms: _597  and  _599
REMARK  227  A    between atoms: _599  and  _600
REMARK  228  A    between atoms: _599  and  _602
REMARK  229  A    between atoms: _602  and  _603
REMARK  230  A    between atoms: _606  and  _608
REMARK  231  A    between atoms: _608  and  _609
REMARK  232  A    between atoms: _608  and  _611
REMARK  233  A    between atoms: _611  and  _612
REMARK  234  A    between atoms: _615  and  _617
REMARK  235  A    between atoms: _617  and  _618
REMARK  236  A    between atoms: _617  and  _620
REMARK  237  A    between atoms: _620  and  _621
REMARK  238  A    between atoms: _624  and  _626
REMARK  239  A    between atoms: _626  and  _627
REMARK  240  A    between atoms: _626  and  _629
REMARK  241  A    between atoms: _629  and  _630
REMARK  242  A    between atoms: _630  and  _631
REMARK                            x       y       z     vdW  Elec       q    Type
REMARK                         _______ _______ _______ _____ _____    ______ ____
ROOT
ATOM      1  CA  HIS A   3       0.484  64.665  86.627  0.00  0.00    +0.155 C 
ENDROOT
BRANCH   1   3
ATOM      2  C   ASN A   2       1.732  63.494  84.930  0.00  0.00    +0.241 C 
ATOM      3  N   HIS A   3       1.574  63.797  86.212  0.00  0.00    -0.297 N 
ATOM      4  H   HIS A   3       2.231  63.413  86.921  0.00  0.00    +0.150 HD
ATOM      5  O   ASN A   2       1.010  63.966  84.048  0.00  0.00    -0.273 OA
BRANCH   2   6
ATOM      6  CA  ASN A   2       2.886  62.537  84.591  0.00  0.00    +0.158 C 
BRANCH   6   9
ATOM      7  C   HIS A   1       2.334  60.133  84.457  0.00  0.00    +0.239 C 
ATOM      8  O   HIS A   1       2.616  59.918  85.646  0.00  0.00    -0.274 OA
ATOM      9  N   ASN A   2       2.434  61.333  83.880  0.00  0.00    -0.297 N 
ATOM     10  H   ASN A   2       2.179  61.420  82.876  0.00  0.00    +0.150 HD
BRANCH   7  11
ATOM     11  CA  HIS A   1       1.871  58.992  83.533  0.00  0.00    +0.151 C 
BRANCH  11  12
ATOM     12  N   HIS A   1       2.983  58.088  83.354  0.00  0.00    -0.238 NA
ATOM     13  H   HIS A   1       3.477  57.744  84.202  0.00  0.00    +0.142 HD
ENDBRANCH  11  12
BRANCH  11  14
ATOM     14  CB  HIS A   1       0.704  58.154  84.108  0.00  0.00    +0.074 C 
BRANCH  14  15
ATOM     15  CG  HIS A   1      -0.299  58.931  84.898  0.00  0.00    +0.082 A 
ATOM     16  CD2 HIS A   1      -0.579  58.932  86.223  0.00  0.00    +0.115 A 
ATOM     17  NE2 HIS A   1      -1.598  59.834  86.423  0.00  0.00    -0.221 NA
ATOM     18  CE1 HIS A   1      -1.932  60.365  85.262  0.00  0.00    +0.199 A 
ATOM     19  ND1 HIS A   1      -1.162  59.837  84.324  0.00  0.00    -0.227 NA
ENDBRANCH  14  15
ENDBRANCH  11  14
ENDBRANCH   7  11
ENDBRANCH   6   9
BRANCH   6  20
ATOM     20  CB  ASN A   2       3.943  63.275  83.756  0.00  0.00    +0.114 C 
BRANCH  20  21
ATOM     21  CG  ASN A   2       5.185  62.424  83.494  0.00  0.00    +0.222 C 
ATOM     22  OD1 ASN A   2       5.624  61.661  84.360  0.00  0.00    -0.275 OA
ATOM     23  ND2 ASN A   2       5.763  62.561  82.299  0.00  0.00    -0.329 N 
ATOM     24 HD21 ASN A   2       6.617  62.013  82.068  0.00  0.00    +0.145 HD
ATOM     25 HD22 ASN A   2       5.360  63.215  81.598  0.00  0.00    +0.145 HD
ENDBRANCH  20  21
ENDBRANCH   6  20
ENDBRANCH   2   6
ENDBRANCH   1   3
BRANCH   1  26
ATOM     26  C   HIS A   3       0.768  65.429  87.907  0.00  0.00    +0.241 C 
ATOM     27  O   HIS A   3       1.395  64.918  88.835  0.00  0.00    -0.273 OA
ATOM     28  N   GLN A   4       0.305  66.670  87.930  0.00  0.00    -0.297 N 
ATOM     29  H   GLN A   4      -0.166  67.046  87.083  0.00  0.00    +0.150 HD
BRANCH  28  30
ATOM     30  CA  GLN A   4       0.433  67.524  89.098  0.00  0.00    +0.149 C 
BRANCH  30  31
ATOM     31  C   GLN A   4      -0.936  68.164  89.215  0.00  0.00    +0.244 C 
ATOM     32  N   PRO A   5      -1.636  67.925  90.327  0.00  0.00    -0.273 N 
ATOM     33  CD  PRO A   5      -1.295  67.074  91.481  0.00  0.00    +0.094 C 
ATOM     34  CG  PRO A   5      -2.289  67.533  92.532  0.00  0.00    +0.024 C 
ATOM     35  CB  PRO A   5      -3.521  67.800  91.719  0.00  0.00    +0.030 C 
ATOM     36  CA  PRO A   5      -2.967  68.520  90.481  0.00  0.00    +0.140 C 
ATOM     37  O   GLN A   4      -1.384  68.848  88.303  0.00  0.00    -0.273 OA
BRANCH  36  38
ATOM     38  C   PRO A   5      -2.956  70.044  90.638  0.00  0.00    +0.227 C 
ATOM     39  O   PRO A   5      -2.051  70.605  91.259  0.00  0.00    -0.286 OA
ENDBRANCH  36  38
ENDBRANCH  30  31
BRANCH  30  40
ATOM     40  CB  GLN A   4       1.512  68.590  88.888  0.00  0.00    +0.039 C 
BRANCH  40  41
ATOM     41  CG  GLN A   4       2.952  68.073  88.994  0.00  0.00    +0.087 C 
BRANCH  41  42
ATOM     42  CD  GLN A   4       3.223  67.343  90.310  0.00  0.00    +0.219 C 
ATOM     43  OE1 GLN A   4       2.680  67.698  91.356  0.00  0.00    -0.275 OA
ATOM     44  NE2 GLN A   4       4.074  66.326  90.257  0.00  0.00    -0.329 N 
ATOM     45 HE21 GLN A   4       4.305  65.795  91.121  0.00  0.00    +0.145 HD
ATOM     46 HE22 GLN A   4       4.510  66.060  89.351  0.00  0.00    +0.145 HD
ENDBRANCH  41  42
ENDBRANCH  40  41
ENDBRANCH  30  40
ENDBRANCH  28  30
ENDBRANCH   1  26
BRANCH   1  47
ATOM     47  CB  HIS A   3      -0.797  63.818  86.792  0.00  0.00    +0.076 C 
BRANCH  47  48
ATOM     48  CG  HIS A   3      -1.872  64.471  87.609  0.00  0.00    +0.082 A 
ATOM     49  CD2 HIS A   3      -2.422  64.119  88.798  0.00  0.00    +0.115 A 
ATOM     50  NE2 HIS A   3      -3.386  65.054  89.092  0.00  0.00    -0.221 NA
ATOM     51  CE1 HIS A   3      -3.424  65.948  88.122  0.00  0.00    +0.199 A 
ATOM     52  ND1 HIS A   3      -2.521  65.621  87.214  0.00  0.00    -0.227 NA
ENDBRANCH  47  48
ENDBRANCH   1  47
TORSDOF 18
REMARK  Name = ../refined-set-2016/1k1y/1k1y_pocket.pdb
REMARK  242 active torsions:
REMARK  status: ('A' for Active; 'I' for Inactive)
REMARK    1  A    between atoms: _1  and  _3
REMARK    2  A    between atoms: _3  and  _4
REMARK    3  A    between atoms: _3  and  _6
REMARK    4  A    between atoms: _6  and  _7
REMARK    5  A    between atoms: _12  and  _14
REMARK    6  A    between atoms: _14  and  _15
REMARK    7  A    between atoms: _14  and  _17
REMARK    8  A    between atoms: _17  and  _18
REMARK    9  A    between atoms: _23  and  _25
REMARK   10  A    between atoms: _25  and  _26
REMARK   11  A    between atoms: _25  and  _28
REMARK   12  A    between atoms: _28  and  _29
REMARK   13  A    between atoms: _34  and  _36
REMARK   14  A    between atoms: _36  and  _37
REMARK   15  A    between atoms: _36  and  _39
REMARK   16  A    between atoms: _39  and  _40
REMARK   17  A    between atoms: _40  and  _41
REMARK   18  A    between atoms: _47  and  _48
REMARK   19  A    between atoms: _53  and  _55
REMARK   20  A    between atoms: _55  and  _56
REMARK   21  A    between atoms: _55  and  _58
REMARK   22  A    between atoms: _58  and  _59
REMARK   23  A    between atoms: _64  and  _66
REMARK   24  A    between atoms: _66  and  _67
REMARK   25  A    between atoms: _66  and  _69
REMARK   26  A    between atoms: _69  and  _70
REMARK   27  A    between atoms: _75  and  _76
REMARK   28  A    between atoms: _78  and  _80
REMARK   29  A    between atoms: _80  and  _81
REMARK   30  A    between atoms: _80  and  _83
REMARK   31  A    between atoms: _83  and  _84
REMARK   32  A    between atoms: _89  and  _91
REMARK   33  A    between atoms: _91  and  _92
REMARK   34  A    between atoms: _91  and  _94
REMARK   35  A    between atoms: _94  and  _95
REMARK   36  A    between atoms: _95  and  _96
REMARK   37  A    between atoms: _99  and  _101
REMARK   38  A    between atoms: _101  and  _102
REMARK   39  A    between atoms: _101  and  _104
REMARK   40  A    between atoms: _104  and  _105
REMARK   41  A    between atoms: _115  and  _117
REMARK   42  A    between atoms: _117  and  _118
REMARK   43  A    between atoms: _117  and  _120
REMARK   44  A    between atoms: _120  and  _121
REMARK   45  A    between atoms: _124  and  _126
REMARK   46  A    between atoms: _126  and  _127
REMARK   47  A    between atoms: _126  and  _129
REMARK   48  A    between atoms: _129  and  _130
REMARK   49  A    between atoms: _133  and  _135
REMARK   50  A    between atoms: _135  and  _136
REMARK   51  A    between atoms: _135  and  _138
REMARK   52  A    between atoms: _138  and  _139
REMARK   53  A    between atoms: _139  and  _140
REMARK   54  A    between atoms: _143  and  _145
REMARK   55  A    between atoms: _145  and  _146
REMARK   56  A    between atoms: _145  and  _148
REMARK   57  A    between atoms: _148  and  _149
REMARK   58  A    between atoms: _149  and  _150
REMARK   59  A    between atoms: _150  and  _151
REMARK   60  A    between atoms: _160  and  _162
REMARK   61  A    between atoms: _162  and  _163
REMARK   62  A    between atoms: _162  and  _165
REMARK   63  A    between atoms: _165  and  _166
REMARK   64  A    between atoms: _169  and  _171
REMARK   65  A    between atoms: _171  and  _172
REMARK   66  A    between atoms: _171  and  _174
REMARK   67  A    between atoms: _174  and  _175
REMARK   68  A    between atoms: _178  and  _180
REMARK   69  A    between atoms: _180  and  _181
REMARK   70  A    between atoms: _180  and  _183
REMARK   71  A    between atoms: _183  and  _184
REMARK   72  A    between atoms: _187  and  _189
REMARK   73  A    between atoms: _189  and  _190
REMARK   74  A    between atoms: _189  and  _192
REMARK   75  A    between atoms: _192  and  _193
REMARK   76  A    between atoms: _193  and  _194
REMARK   77  A    between atoms: _197  and  _199
REMARK   78  A    between atoms: _199  and  _200
REMARK   79  A    between atoms: _199  and  _202
REMARK   80  A    between atoms: _202  and  _203
REMARK   81  A    between atoms: _203  and  _204
REMARK   82  A    between atoms: _204  and  _205
REMARK   83  A    between atoms: _205  and  _206
REMARK   84  A    between atoms: _210  and  _212
REMARK   85  A    between atoms: _212  and  _213
REMARK   86  A    between atoms: _212  and  _215
REMARK   87  A    between atoms: _215  and  _216
REMARK   88  A    between atoms: _219  and  _221
REMARK   89  A    between atoms: _221  and  _222
REMARK   90  A    between atoms: _221  and  _224
REMARK   91  A    between atoms: _224  and  _225
REMARK   92  A    between atoms: _225  and  _226
REMARK   93  A    between atoms: _226  and  _227
REMARK   94  A    between atoms: _236  and  _238
REMARK   95  A    between atoms: _238  and  _239
REMARK   96  A    between atoms: _238  and  _241
REMARK   97  A    between atoms: _241  and  _242
REMARK   98  A    between atoms: _247  and  _248
REMARK   99  A    between atoms: _250  and  _252
REMARK  100  A    between atoms: _252  and  _253
REMARK  101  A    between atoms: _252  and  _255
REMARK  102  A    between atoms: _255  and  _256
REMARK  103  A    between atoms: _259  and  _261
REMARK  104  A    between atoms: _261  and  _262
REMARK  105  A    between atoms: _261  and  _264
REMARK  106  A    between atoms: _264  and  _265
REMARK  107  A    between atoms: _269  and  _270
REMARK  108  A    between atoms: _275  and  _277
REMARK  109  A    between atoms: _277  and  _278
REMARK  110  A    between atoms: _277  and  _280
REMARK  111  A    between atoms: _280  and  _281
REMARK  112  A    between atoms: _287  and  _289
REMARK  113  A    between atoms: _289  and  _290
REMARK  114  A    between atoms: _289  and  _292
REMARK  115  A    between atoms: _292  and  _293
REMARK  116  A    between atoms: _293  and  _294
REMARK  117  A    between atoms: _294  and  _295
REMARK  118  A    between atoms: _304  and  _306
REMARK  119  A    between atoms: _306  and  _307
REMARK  120  A    between atoms: _306  and  _309
REMARK  121  A    between atoms: _309  and  _310
REMARK  122  A    between atoms: _316  and  _318
REMARK  123  A    between atoms: _318  and  _319
REMARK  124  A    between atoms: _318  and  _321
REMARK  125  A    between atoms: _321  and  _322
REMARK  126  A    between atoms: _327  and  _329
REMARK  127  A    between atoms: _329  and  _330
REMARK  128  A    between atoms: _329  and  _332
REMARK  129  A    between atoms: _332  and  _333
REMARK  130  A    between atoms: _336  and  _338
REMARK  131  A    between atoms: _338  and  _339
REMARK  132  A    between atoms: _338  and  _341
REMARK  133  A    between atoms: _341  and  _342
REMARK  134  A    between atoms: _345  and  _347
REMARK  135  A    between atoms: _347  and  _348
REMARK  136  A    between atoms: _350  and  _352
REMARK  137  A    between atoms: _352  and  _353
REMARK  138  A    between atoms: _352  and  _355
REMARK  139  A    between atoms: _355  and  _356
REMARK  140  A    between atoms: _356  and  _357
REMARK  141  A    between atoms: _360  and  _362
REMARK  142  A    between atoms: _362  and  _363
REMARK  143  A    between atoms: _362  and  _365
REMARK  144  A    between atoms: _365  and  _366
REMARK  145  A    between atoms: _366  and  _367
REMARK  146  A    between atoms: _367  and  _368
REMARK  147  A    between atoms: _368  and  _369
REMARK  148  A    between atoms: _373  and  _375
REMARK  149  A    between atoms: _375  and  _376
REMARK  150  A    between atoms: _375  and  _378
REMARK  151  A    between atoms: _378  and  _379
REMARK  152  A    between atoms: _390  and  _391
REMARK  153  A    between atoms: _396  and  _398
REMARK  154  A    between atoms: _398  and  _399
REMARK  155  A    between atoms: _401  and  _403
REMARK  156  A    between atoms: _403  and  _404
REMARK  157  A    between atoms: _403  and  _406
REMARK  158  A    between atoms: _406  and  _407
REMARK  159  A    between atoms: _410  and  _412
REMARK  160  A    between atoms: _412  and  _413
REMARK  161  A    between atoms: _412  and  _415
REMARK  162  A    between atoms: _415  and  _416
REMARK  163  A    between atoms: _418  and  _420
REMARK  164  A    between atoms: _420  and  _421
REMARK  165  A    between atoms: _420  and  _423
REMARK  166  A    between atoms: _423  and  _424
REMARK  167  A    between atoms: _429  and  _430
REMARK  168  A    between atoms: _432  and  _434
REMARK  169  A    between atoms: _434  and  _435
REMARK  170  A    between atoms: _434  and  _437
REMARK  171  A    between atoms: _437  and  _438
REMARK  172  A    between atoms: _444  and  _446
REMARK  173  A    between atoms: _446  and  _447
REMARK  174  A    between atoms: _446  and  _449
REMARK  175  A    between atoms: _449  and  _450
REMARK  176  A    between atoms: _450  and  _451
REMARK  177  A    between atoms: _454  and  _456
REMARK  178  A    between atoms: _456  and  _457
REMARK  179  A    between atoms: _456  and  _459
REMARK  180  A    between atoms: _459  and  _460
REMARK  181  A    between atoms: _460  and  _461
REMARK  182  A    between atoms: _463  and  _465
REMARK  183  A    between atoms: _465  and  _466
REMARK  184  A    between atoms: _465  and  _468
REMARK  185  A    between atoms: _468  and  _469
REMARK  186  A    between atoms: _479  and  _481
REMARK  187  A    between atoms: _481  and  _482
REMARK  188  A    between atoms: _481  and  _484
REMARK  189  A    between atoms: _484  and  _485
REMARK  190  A    between atoms: _495  and  _497
REMARK  191  A    between atoms: _497  and  _498
REMARK  192  A    between atoms: _497  and  _500
REMARK  193  A    between atoms: _500  and  _501
REMARK  194  A    between atoms: _506  and  _508
REMARK  195  A    between atoms: _508  and  _509
REMARK  196  A    between atoms: _508  and  _511
REMARK  197  A    between atoms: _511  and  _512
REMARK  198  A    between atoms: _515  and  _517
REMARK  199  A    between atoms: _517  and  _518
REMARK  200  A    between atoms: _521  and  _523
REMARK  201  A    between atoms: _523  and  _524
REMARK  202  A    between atoms: _523  and  _526
REMARK  203  A    between atoms: _526  and  _527
REMARK  204  A    between atoms: _532  and  _533
REMARK  205  A    between atoms: _535  and  _537
REMARK  206  A    between atoms: _537  and  _538
REMARK  207  A    between atoms: _537  and  _540
REMARK  208  A    between atoms: _540  and  _541
REMARK  209  A    between atoms: _551  and  _553
REMARK  210  A    between atoms: _553  and  _554
REMARK  211  A    between atoms: _553  and  _556
REMARK  212  A    between atoms: _556  and  _557
REMARK  213  A    between atoms: _562  and  _564
REMARK  214  A    between atoms: _564  and  _565
REMARK  215  A    between atoms: _567  and  _569
REMARK  216  A    between atoms: _569  and  _570
REMARK  217  A    between atoms: _569  and  _572
REMARK  218  A    between atoms: _575  and  _577
REMARK  219  A    between atoms: _577  and  _578
REMARK  220  A    between atoms: _577  and  _580
REMARK  221  A    between atoms: _580  and  _581
REMARK  222  A    between atoms: _587  and  _589
REMARK  223  A    between atoms: _589  and  _590
REMARK  224  A    between atoms: _592  and  _594
REMARK  225  A    between atoms: _594  and  _595
REMARK  226  A    between atoms: _597  and  _599
REMARK  227  A    between atoms: _599  and  _600
REMARK  228  A    between atoms: _599  and  _602
REMARK  229  A    between atoms: _602  and  _603
REMARK  230  A    between atoms: _606  and  _608
REMARK  231  A    between atoms: _608  and  _609
REMARK  232  A    between atoms: _608  and  _611
REMARK  233  A    between atoms: _611  and  _612
REMARK  234  A    between atoms: _615  and  _617
REMARK  235  A    between atoms: _617  and  _618
REMARK  236  A    between atoms: _617  and  _620
REMARK  237  A    between atoms: _620  and  _621
REMARK  238  A    between atoms: _624  and  _626
REMARK  239  A    between atoms: _626  and  _627
REMARK  240  A    between atoms: _626  and  _629
REMARK  241  A    between atoms: _629  and  _630
REMARK  242  A    between atoms: _630  and  _631
REMARK                            x       y       z     vdW  Elec       q    Type
REMARK                         _______ _______ _______ _____ _____    ______ ____
ROOT
ATOM      1  CB  ASN A   1       0.668  71.191  93.113  0.00  0.00    +0.110 C 
ENDROOT
BRANCH   1   2
ATOM      2  CG  ASN A   1       0.501  69.833  93.752  0.00  0.00    +0.221 C 
ATOM      3  OD1 ASN A   1       0.045  69.732  94.886  0.00  0.00    -0.275 OA
ATOM      4  ND2 ASN A   1       0.873  68.784  93.037  0.00  0.00    -0.329 N 
ATOM      5 HD21 ASN A   1       0.784  67.827  93.433  0.00  0.00    +0.145 HD
ATOM      6 HD22 ASN A   1       1.255  68.917  92.079  0.00  0.00    +0.145 HD
ENDBRANCH   1   2
BRANCH   1   7
ATOM      7  CA  ASN A   1       0.025  72.298  93.942  0.00  0.00    +0.142 C 
BRANCH   7   8
ATOM      8  N   ASN A   1      -1.255  72.701  93.385  0.00  0.00    -0.239 NA
ATOM      9  H   ASN A   1      -1.538  72.379  92.437  0.00  0.00    +0.142 HD
ENDBRANCH   7   8
BRANCH   7  10
ATOM     10  C   ASN A   1       0.949  73.499  94.032  0.00  0.00    +0.225 C 
ATOM     11  O   ASN A   1       0.839  74.446  93.257  0.00  0.00    -0.287 OA
ENDBRANCH   7  10
ENDBRANCH   1   7
TORSDOF 4
REMARK  Name = ../refined-set-2016/1k1y/1k1y_pocket.pdb
REMARK  242 active torsions:
REMARK  status: ('A' for Active; 'I' for Inactive)
REMARK    1  A    between atoms: _1  and  _3
REMARK    2  A    between atoms: _3  and  _4
REMARK    3  A    between atoms: _3  and  _6
REMARK    4  A    between atoms: _6  and  _7
REMARK    5  A    between atoms: _12  and  _14
REMARK    6  A    between atoms: _14  and  _15
REMARK    7  A    between atoms: _14  and  _17
REMARK    8  A    between atoms: _17  and  _18
REMARK    9  A    between atoms: _23  and  _25
REMARK   10  A    between atoms: _25  and  _26
REMARK   11  A    between atoms: _25  and  _28
REMARK   12  A    between atoms: _28  and  _29
REMARK   13  A    between atoms: _34  and  _36
REMARK   14  A    between atoms: _36  and  _37
REMARK   15  A    between atoms: _36  and  _39
REMARK   16  A    between atoms: _39  and  _40
REMARK   17  A    between atoms: _40  and  _41
REMARK   18  A    between atoms: _47  and  _48
REMARK   19  A    between atoms: _53  and  _55
REMARK   20  A    between atoms: _55  and  _56
REMARK   21  A    between atoms: _55  and  _58
REMARK   22  A    between atoms: _58  and  _59
REMARK   23  A    between atoms: _64  and  _66
REMARK   24  A    between atoms: _66  and  _67
REMARK   25  A    between atoms: _66  and  _69
REMARK   26  A    between atoms: _69  and  _70
REMARK   27  A    between atoms: _75  and  _76
REMARK   28  A    between atoms: _78  and  _80
REMARK   29  A    between atoms: _80  and  _81
REMARK   30  A    between atoms: _80  and  _83
REMARK   31  A    between atoms: _83  and  _84
REMARK   32  A    between atoms: _89  and  _91
REMARK   33  A    between atoms: _91  and  _92
REMARK   34  A    between atoms: _91  and  _94
REMARK   35  A    between atoms: _94  and  _95
REMARK   36  A    between atoms: _95  and  _96
REMARK   37  A    between atoms: _99  and  _101
REMARK   38  A    between atoms: _101  and  _102
REMARK   39  A    between atoms: _101  and  _104
REMARK   40  A    between atoms: _104  and  _105
REMARK   41  A    between atoms: _115  and  _117
REMARK   42  A    between atoms: _117  and  _118
REMARK   43  A    between atoms: _117  and  _120
REMARK   44  A    between atoms: _120  and  _121
REMARK   45  A    between atoms: _124  and  _126
REMARK   46  A    between atoms: _126  and  _127
REMARK   47  A    between atoms: _126  and  _129
REMARK   48  A    between atoms: _129  and  _130
REMARK   49  A    between atoms: _133  and  _135
REMARK   50  A    between atoms: _135  and  _136
REMARK   51  A    between atoms: _135  and  _138
REMARK   52  A    between atoms: _138  and  _139
REMARK   53  A    between atoms: _139  and  _140
REMARK   54  A    between atoms: _143  and  _145
REMARK   55  A    between atoms: _145  and  _146
REMARK   56  A    between atoms: _145  and  _148
REMARK   57  A    between atoms: _148  and  _149
REMARK   58  A    between atoms: _149  and  _150
REMARK   59  A    between atoms: _150  and  _151
REMARK   60  A    between atoms: _160  and  _162
REMARK   61  A    between atoms: _162  and  _163
REMARK   62  A    between atoms: _162  and  _165
REMARK   63  A    between atoms: _165  and  _166
REMARK   64  A    between atoms: _169  and  _171
REMARK   65  A    between atoms: _171  and  _172
REMARK   66  A    between atoms: _171  and  _174
REMARK   67  A    between atoms: _174  and  _175
REMARK   68  A    between atoms: _178  and  _180
REMARK   69  A    between atoms: _180  and  _181
REMARK   70  A    between atoms: _180  and  _183
REMARK   71  A    between atoms: _183  and  _184
REMARK   72  A    between atoms: _187  and  _189
REMARK   73  A    between atoms: _189  and  _190
REMARK   74  A    between atoms: _189  and  _192
REMARK   75  A    between atoms: _192  and  _193
REMARK   76  A    between atoms: _193  and  _194
REMARK   77  A    between atoms: _197  and  _199
REMARK   78  A    between atoms: _199  and  _200
REMARK   79  A    between atoms: _199  and  _202
REMARK   80  A    between atoms: _202  and  _203
REMARK   81  A    between atoms: _203  and  _204
REMARK   82  A    between atoms: _204  and  _205
REMARK   83  A    between atoms: _205  and  _206
REMARK   84  A    between atoms: _210  and  _212
REMARK   85  A    between atoms: _212  and  _213
REMARK   86  A    between atoms: _212  and  _215
REMARK   87  A    between atoms: _215  and  _216
REMARK   88  A    between atoms: _219  and  _221
REMARK   89  A    between atoms: _221  and  _222
REMARK   90  A    between atoms: _221  and  _224
REMARK   91  A    between atoms: _224  and  _225
REMARK   92  A    between atoms: _225  and  _226
REMARK   93  A    between atoms: _226  and  _227
REMARK   94  A    between atoms: _236  and  _238
REMARK   95  A    between atoms: _238  and  _239
REMARK   96  A    between atoms: _238  and  _241
REMARK   97  A    between atoms: _241  and  _242
REMARK   98  A    between atoms: _247  and  _248
REMARK   99  A    between atoms: _250  and  _252
REMARK  100  A    between atoms: _252  and  _253
REMARK  101  A    between atoms: _252  and  _255
REMARK  102  A    between atoms: _255  and  _256
REMARK  103  A    between atoms: _259  and  _261
REMARK  104  A    between atoms: _261  and  _262
REMARK  105  A    between atoms: _261  and  _264
REMARK  106  A    between atoms: _264  and  _265
REMARK  107  A    between atoms: _269  and  _270
REMARK  108  A    between atoms: _275  and  _277
REMARK  109  A    between atoms: _277  and  _278
REMARK  110  A    between atoms: _277  and  _280
REMARK  111  A    between atoms: _280  and  _281
REMARK  112  A    between atoms: _287  and  _289
REMARK  113  A    between atoms: _289  and  _290
REMARK  114  A    between atoms: _289  and  _292
REMARK  115  A    between atoms: _292  and  _293
REMARK  116  A    between atoms: _293  and  _294
REMARK  117  A    between atoms: _294  and  _295
REMARK  118  A    between atoms: _304  and  _306
REMARK  119  A    between atoms: _306  and  _307
REMARK  120  A    between atoms: _306  and  _309
REMARK  121  A    between atoms: _309  and  _310
REMARK  122  A    between atoms: _316  and  _318
REMARK  123  A    between atoms: _318  and  _319
REMARK  124  A    between atoms: _318  and  _321
REMARK  125  A    between atoms: _321  and  _322
REMARK  126  A    between atoms: _327  and  _329
REMARK  127  A    between atoms: _329  and  _330
REMARK  128  A    between atoms: _329  and  _332
REMARK  129  A    between atoms: _332  and  _333
REMARK  130  A    between atoms: _336  and  _338
REMARK  131  A    between atoms: _338  and  _339
REMARK  132  A    between atoms: _338  and  _341
REMARK  133  A    between atoms: _341  and  _342
REMARK  134  A    between atoms: _345  and  _347
REMARK  135  A    between atoms: _347  and  _348
REMARK  136  A    between atoms: _350  and  _352
REMARK  137  A    between atoms: _352  and  _353
REMARK  138  A    between atoms: _352  and  _355
REMARK  139  A    between atoms: _355  and  _356
REMARK  140  A    between atoms: _356  and  _357
REMARK  141  A    between atoms: _360  and  _362
REMARK  142  A    between atoms: _362  and  _363
REMARK  143  A    between atoms: _362  and  _365
REMARK  144  A    between atoms: _365  and  _366
REMARK  145  A    between atoms: _366  and  _367
REMARK  146  A    between atoms: _367  and  _368
REMARK  147  A    between atoms: _368  and  _369
REMARK  148  A    between atoms: _373  and  _375
REMARK  149  A    between atoms: _375  and  _376
REMARK  150  A    between atoms: _375  and  _378
REMARK  151  A    between atoms: _378  and  _379
REMARK  152  A    between atoms: _390  and  _391
REMARK  153  A    between atoms: _396  and  _398
REMARK  154  A    between atoms: _398  and  _399
REMARK  155  A    between atoms: _401  and  _403
REMARK  156  A    between atoms: _403  and  _404
REMARK  157  A    between atoms: _403  and  _406
REMARK  158  A    between atoms: _406  and  _407
REMARK  159  A    between atoms: _410  and  _412
REMARK  160  A    between atoms: _412  and  _413
REMARK  161  A    between atoms: _412  and  _415
REMARK  162  A    between atoms: _415  and  _416
REMARK  163  A    between atoms: _418  and  _420
REMARK  164  A    between atoms: _420  and  _421
REMARK  165  A    between atoms: _420  and  _423
REMARK  166  A    between atoms: _423  and  _424
REMARK  167  A    between atoms: _429  and  _430
REMARK  168  A    between atoms: _432  and  _434
REMARK  169  A    between atoms: _434  and  _435
REMARK  170  A    between atoms: _434  and  _437
REMARK  171  A    between atoms: _437  and  _438
REMARK  172  A    between atoms: _444  and  _446
REMARK  173  A    between atoms: _446  and  _447
REMARK  174  A    between atoms: _446  and  _449
REMARK  175  A    between atoms: _449  and  _450
REMARK  176  A    between atoms: _450  and  _451
REMARK  177  A    between atoms: _454  and  _456
REMARK  178  A    between atoms: _456  and  _457
REMARK  179  A    between atoms: _456  and  _459
REMARK  180  A    between atoms: _459  and  _460
REMARK  181  A    between atoms: _460  and  _461
REMARK  182  A    between atoms: _463  and  _465
REMARK  183  A    between atoms: _465  and  _466
REMARK  184  A    between atoms: _465  and  _468
REMARK  185  A    between atoms: _468  and  _469
REMARK  186  A    between atoms: _479  and  _481
REMARK  187  A    between atoms: _481  and  _482
REMARK  188  A    between atoms: _481  and  _484
REMARK  189  A    between atoms: _484  and  _485
REMARK  190  A    between atoms: _495  and  _497
REMARK  191  A    between atoms: _497  and  _498
REMARK  192  A    between atoms: _497  and  _500
REMARK  193  A    between atoms: _500  and  _501
REMARK  194  A    between atoms: _506  and  _508
REMARK  195  A    between atoms: _508  and  _509
REMARK  196  A    between atoms: _508  and  _511
REMARK  197  A    between atoms: _511  and  _512
REMARK  198  A    between atoms: _515  and  _517
REMARK  199  A    between atoms: _517  and  _518
REMARK  200  A    between atoms: _521  and  _523
REMARK  201  A    between atoms: _523  and  _524
REMARK  202  A    between atoms: _523  and  _526
REMARK  203  A    between atoms: _526  and  _527
REMARK  204  A    between atoms: _532  and  _533
REMARK  205  A    between atoms: _535  and  _537
REMARK  206  A    between atoms: _537  and  _538
REMARK  207  A    between atoms: _537  and  _540
REMARK  208  A    between atoms: _540  and  _541
REMARK  209  A    between atoms: _551  and  _553
REMARK  210  A    between atoms: _553  and  _554
REMARK  211  A    between atoms: _553  and  _556
REMARK  212  A    between atoms: _556  and  _557
REMARK  213  A    between atoms: _562  and  _564
REMARK  214  A    between atoms: _564  and  _565
REMARK  215  A    between atoms: _567  and  _569
REMARK  216  A    between atoms: _569  and  _570
REMARK  217  A    between atoms: _569  and  _572
REMARK  218  A    between atoms: _575  and  _577
REMARK  219  A    between atoms: _577  and  _578
REMARK  220  A    between atoms: _577  and  _580
REMARK  221  A    between atoms: _580  and  _581
REMARK  222  A    between atoms: _587  and  _589
REMARK  223  A    between atoms: _589  and  _590
REMARK  224  A    between atoms: _592  and  _594
REMARK  225  A    between atoms: _594  and  _595
REMARK  226  A    between atoms: _597  and  _599
REMARK  227  A    between atoms: _599  and  _600
REMARK  228  A    between atoms: _599  and  _602
REMARK  229  A    between atoms: _602  and  _603
REMARK  230  A    between atoms: _606  and  _608
REMARK  231  A    between atoms: _608  and  _609
REMARK  232  A    between atoms: _608  and  _611
REMARK  233  A    between atoms: _611  and  _612
REMARK  234  A    between atoms: _615  and  _617
REMARK  235  A    between atoms: _617  and  _618
REMARK  236  A    between atoms: _617  and  _620
REMARK  237  A    between atoms: _620  and  _621
REMARK  238  A    between atoms: _624  and  _626
REMARK  239  A    between atoms: _626  and  _627
REMARK  240  A    between atoms: _626  and  _629
REMARK  241  A    between atoms: _629  and  _630
REMARK  242  A    between atoms: _630  and  _631
REMARK                            x       y       z     vdW  Elec       q    Type
REMARK                         _______ _______ _______ _____ _____    ______ ____
ROOT
ATOM      1  CG  TYR A   1       8.165  65.695  84.994  0.00  0.00    -0.020 A 
ATOM      2  CD2 TYR A   1       7.531  66.818  85.523  0.00  0.00    -0.001 A 
ATOM      3  CE2 TYR A   1       6.441  66.705  86.374  0.00  0.00    +0.036 A 
ATOM      4  CZ  TYR A   1       5.959  65.445  86.707  0.00  0.00    +0.134 A 
ATOM      5  CE1 TYR A   1       6.565  64.298  86.191  0.00  0.00    +0.036 A 
ATOM      6  CD1 TYR A   1       7.666  64.429  85.338  0.00  0.00    -0.001 A 
ENDROOT
BRANCH   4   7
ATOM      7  OH  TYR A   1       4.881  65.343  87.553  0.00  0.00    -0.506 OA
ATOM      8  HH  TYR A   1       4.142  64.874  87.089  0.00  0.00    +0.292 HD
ENDBRANCH   4   7
BRANCH   1   9
ATOM      9  CB  TYR A   1       9.371  65.846  84.083  0.00  0.00    +0.051 C 
BRANCH   9  10
ATOM     10  CA  TYR A   1      10.330  64.649  84.113  0.00  0.00    +0.137 C 
BRANCH  10  11
ATOM     11  N   TYR A   1      10.636  64.292  85.501  0.00  0.00    -0.239 NA
ATOM     12  H   TYR A   1      10.118  64.763  86.270  0.00  0.00    +0.142 HD
ENDBRANCH  10  11
BRANCH  10  13
ATOM     13  C   TYR A   1      11.542  64.926  83.223  0.00  0.00    +0.224 C 
ATOM     14  O   TYR A   1      11.621  64.397  82.113  0.00  0.00    -0.287 OA
ENDBRANCH  10  13
ENDBRANCH   9  10
ENDBRANCH   1   9
TORSDOF 5
REMARK  Name = ../refined-set-2016/1k1y/1k1y_pocket.pdb
REMARK  242 active torsions:
REMARK  status: ('A' for Active; 'I' for Inactive)
REMARK    1  A    between atoms: _1  and  _3
REMARK    2  A    between atoms: _3  and  _4
REMARK    3  A    between atoms: _3  and  _6
REMARK    4  A    between atoms: _6  and  _7
REMARK    5  A    between atoms: _12  and  _14
REMARK    6  A    between atoms: _14  and  _15
REMARK    7  A    between atoms: _14  and  _17
REMARK    8  A    between atoms: _17  and  _18
REMARK    9  A    between atoms: _23  and  _25
REMARK   10  A    between atoms: _25  and  _26
REMARK   11  A    between atoms: _25  and  _28
REMARK   12  A    between atoms: _28  and  _29
REMARK   13  A    between atoms: _34  and  _36
REMARK   14  A    between atoms: _36  and  _37
REMARK   15  A    between atoms: _36  and  _39
REMARK   16  A    between atoms: _39  and  _40
REMARK   17  A    between atoms: _40  and  _41
REMARK   18  A    between atoms: _47  and  _48
REMARK   19  A    between atoms: _53  and  _55
REMARK   20  A    between atoms: _55  and  _56
REMARK   21  A    between atoms: _55  and  _58
REMARK   22  A    between atoms: _58  and  _59
REMARK   23  A    between atoms: _64  and  _66
REMARK   24  A    between atoms: _66  and  _67
REMARK   25  A    between atoms: _66  and  _69
REMARK   26  A    between atoms: _69  and  _70
REMARK   27  A    between atoms: _75  and  _76
REMARK   28  A    between atoms: _78  and  _80
REMARK   29  A    between atoms: _80  and  _81
REMARK   30  A    between atoms: _80  and  _83
REMARK   31  A    between atoms: _83  and  _84
REMARK   32  A    between atoms: _89  and  _91
REMARK   33  A    between atoms: _91  and  _92
REMARK   34  A    between atoms: _91  and  _94
REMARK   35  A    between atoms: _94  and  _95
REMARK   36  A    between atoms: _95  and  _96
REMARK   37  A    between atoms: _99  and  _101
REMARK   38  A    between atoms: _101  and  _102
REMARK   39  A    between atoms: _101  and  _104
REMARK   40  A    between atoms: _104  and  _105
REMARK   41  A    between atoms: _115  and  _117
REMARK   42  A    between atoms: _117  and  _118
REMARK   43  A    between atoms: _117  and  _120
REMARK   44  A    between atoms: _120  and  _121
REMARK   45  A    between atoms: _124  and  _126
REMARK   46  A    between atoms: _126  and  _127
REMARK   47  A    between atoms: _126  and  _129
REMARK   48  A    between atoms: _129  and  _130
REMARK   49  A    between atoms: _133  and  _135
REMARK   50  A    between atoms: _135  and  _136
REMARK   51  A    between atoms: _135  and  _138
REMARK   52  A    between atoms: _138  and  _139
REMARK   53  A    between atoms: _139  and  _140
REMARK   54  A    between atoms: _143  and  _145
REMARK   55  A    between atoms: _145  and  _146
REMARK   56  A    between atoms: _145  and  _148
REMARK   57  A    between atoms: _148  and  _149
REMARK   58  A    between atoms: _149  and  _150
REMARK   59  A    between atoms: _150  and  _151
REMARK   60  A    between atoms: _160  and  _162
REMARK   61  A    between atoms: _162  and  _163
REMARK   62  A    between atoms: _162  and  _165
REMARK   63  A    between atoms: _165  and  _166
REMARK   64  A    between atoms: _169  and  _171
REMARK   65  A    between atoms: _171  and  _172
REMARK   66  A    between atoms: _171  and  _174
REMARK   67  A    between atoms: _174  and  _175
REMARK   68  A    between atoms: _178  and  _180
REMARK   69  A    between atoms: _180  and  _181
REMARK   70  A    between atoms: _180  and  _183
REMARK   71  A    between atoms: _183  and  _184
REMARK   72  A    between atoms: _187  and  _189
REMARK   73  A    between atoms: _189  and  _190
REMARK   74  A    between atoms: _189  and  _192
REMARK   75  A    between atoms: _192  and  _193
REMARK   76  A    between atoms: _193  and  _194
REMARK   77  A    between atoms: _197  and  _199
REMARK   78  A    between atoms: _199  and  _200
REMARK   79  A    between atoms: _199  and  _202
REMARK   80  A    between atoms: _202  and  _203
REMARK   81  A    between atoms: _203  and  _204
REMARK   82  A    between atoms: _204  and  _205
REMARK   83  A    between atoms: _205  and  _206
REMARK   84  A    between atoms: _210  and  _212
REMARK   85  A    between atoms: _212  and  _213
REMARK   86  A    between atoms: _212  and  _215
REMARK   87  A    between atoms: _215  and  _216
REMARK   88  A    between atoms: _219  and  _221
REMARK   89  A    between atoms: _221  and  _222
REMARK   90  A    between atoms: _221  and  _224
REMARK   91  A    between atoms: _224  and  _225
REMARK   92  A    between atoms: _225  and  _226
REMARK   93  A    between atoms: _226  and  _227
REMARK   94  A    between atoms: _236  and  _238
REMARK   95  A    between atoms: _238  and  _239
REMARK   96  A    between atoms: _238  and  _241
REMARK   97  A    between atoms: _241  and  _242
REMARK   98  A    between atoms: _247  and  _248
REMARK   99  A    between atoms: _250  and  _252
REMARK  100  A    between atoms: _252  and  _253
REMARK  101  A    between atoms: _252  and  _255
REMARK  102  A    between atoms: _255  and  _256
REMARK  103  A    between atoms: _259  and  _261
REMARK  104  A    between atoms: _261  and  _262
REMARK  105  A    between atoms: _261  and  _264
REMARK  106  A    between atoms: _264  and  _265
REMARK  107  A    between atoms: _269  and  _270
REMARK  108  A    between atoms: _275  and  _277
REMARK  109  A    between atoms: _277  and  _278
REMARK  110  A    between atoms: _277  and  _280
REMARK  111  A    between atoms: _280  and  _281
REMARK  112  A    between atoms: _287  and  _289
REMARK  113  A    between atoms: _289  and  _290
REMARK  114  A    between atoms: _289  and  _292
REMARK  115  A    between atoms: _292  and  _293
REMARK  116  A    between atoms: _293  and  _294
REMARK  117  A    between atoms: _294  and  _295
REMARK  118  A    between atoms: _304  and  _306
REMARK  119  A    between atoms: _306  and  _307
REMARK  120  A    between atoms: _306  and  _309
REMARK  121  A    between atoms: _309  and  _310
REMARK  122  A    between atoms: _316  and  _318
REMARK  123  A    between atoms: _318  and  _319
REMARK  124  A    between atoms: _318  and  _321
REMARK  125  A    between atoms: _321  and  _322
REMARK  126  A    between atoms: _327  and  _329
REMARK  127  A    between atoms: _329  and  _330
REMARK  128  A    between atoms: _329  and  _332
REMARK  129  A    between atoms: _332  and  _333
REMARK  130  A    between atoms: _336  and  _338
REMARK  131  A    between atoms: _338  and  _339
REMARK  132  A    between atoms: _338  and  _341
REMARK  133  A    between atoms: _341  and  _342
REMARK  134  A    between atoms: _345  and  _347
REMARK  135  A    between atoms: _347  and  _348
REMARK  136  A    between atoms: _350  and  _352
REMARK  137  A    between atoms: _352  and  _353
REMARK  138  A    between atoms: _352  and  _355
REMARK  139  A    between atoms: _355  and  _356
REMARK  140  A    between atoms: _356  and  _357
REMARK  141  A    between atoms: _360  and  _362
REMARK  142  A    between atoms: _362  and  _363
REMARK  143  A    between atoms: _362  and  _365
REMARK  144  A    between atoms: _365  and  _366
REMARK  145  A    between atoms: _366  and  _367
REMARK  146  A    between atoms: _367  and  _368
REMARK  147  A    between atoms: _368  and  _369
REMARK  148  A    between atoms: _373  and  _375
REMARK  149  A    between atoms: _375  and  _376
REMARK  150  A    between atoms: _375  and  _378
REMARK  151  A    between atoms: _378  and  _379
REMARK  152  A    between atoms: _390  and  _391
REMARK  153  A    between atoms: _396  and  _398
REMARK  154  A    between atoms: _398  and  _399
REMARK  155  A    between atoms: _401  and  _403
REMARK  156  A    between atoms: _403  and  _404
REMARK  157  A    between atoms: _403  and  _406
REMARK  158  A    between atoms: _406  and  _407
REMARK  159  A    between atoms: _410  and  _412
REMARK  160  A    between atoms: _412  and  _413
REMARK  161  A    between atoms: _412  and  _415
REMARK  162  A    between atoms: _415  and  _416
REMARK  163  A    between atoms: _418  and  _420
REMARK  164  A    between atoms: _420  and  _421
REMARK  165  A    between atoms: _420  and  _423
REMARK  166  A    between atoms: _423  and  _424
REMARK  167  A    between atoms: _429  and  _430
REMARK  168  A    between atoms: _432  and  _434
REMARK  169  A    between atoms: _434  and  _435
REMARK  170  A    between atoms: _434  and  _437
REMARK  171  A    between atoms: _437  and  _438
REMARK  172  A    between atoms: _444  and  _446
REMARK  173  A    between atoms: _446  and  _447
REMARK  174  A    between atoms: _446  and  _449
REMARK  175  A    between atoms: _449  and  _450
REMARK  176  A    between atoms: _450  and  _451
REMARK  177  A    between atoms: _454  and  _456
REMARK  178  A    between atoms: _456  and  _457
REMARK  179  A    between atoms: _456  and  _459
REMARK  180  A    between atoms: _459  and  _460
REMARK  181  A    between atoms: _460  and  _461
REMARK  182  A    between atoms: _463  and  _465
REMARK  183  A    between atoms: _465  and  _466
REMARK  184  A    between atoms: _465  and  _468
REMARK  185  A    between atoms: _468  and  _469
REMARK  186  A    between atoms: _479  and  _481
REMARK  187  A    between atoms: _481  and  _482
REMARK  188  A    between atoms: _481  and  _484
REMARK  189  A    between atoms: _484  and  _485
REMARK  190  A    between atoms: _495  and  _497
REMARK  191  A    between atoms: _497  and  _498
REMARK  192  A    between atoms: _497  and  _500
REMARK  193  A    between atoms: _500  and  _501
REMARK  194  A    between atoms: _506  and  _508
REMARK  195  A    between atoms: _508  and  _509
REMARK  196  A    between atoms: _508  and  _511
REMARK  197  A    between atoms: _511  and  _512
REMARK  198  A    between atoms: _515  and  _517
REMARK  199  A    between atoms: _517  and  _518
REMARK  200  A    between atoms: _521  and  _523
REMARK  201  A    between atoms: _523  and  _524
REMARK  202  A    between atoms: _523  and  _526
REMARK  203  A    between atoms: _526  and  _527
REMARK  204  A    between atoms: _532  and  _533
REMARK  205  A    between atoms: _535  and  _537
REMARK  206  A    between atoms: _537  and  _538
REMARK  207  A    between atoms: _537  and  _540
REMARK  208  A    between atoms: _540  and  _541
REMARK  209  A    between atoms: _551  and  _553
REMARK  210  A    between atoms: _553  and  _554
REMARK  211  A    between atoms: _553  and  _556
REMARK  212  A    between atoms: _556  and  _557
REMARK  213  A    between atoms: _562  and  _564
REMARK  214  A    between atoms: _564  and  _565
REMARK  215  A    between atoms: _567  and  _569
REMARK  216  A    between atoms: _569  and  _570
REMARK  217  A    between atoms: _569  and  _572
REMARK  218  A    between atoms: _575  and  _577
REMARK  219  A    between atoms: _577  and  _578
REMARK  220  A    between atoms: _577  and  _580
REMARK  221  A    between atoms: _580  and  _581
REMARK  222  A    between atoms: _587  and  _589
REMARK  223  A    between atoms: _589  and  _590
REMARK  224  A    between atoms: _592  and  _594
REMARK  225  A    between atoms: _594  and  _595
REMARK  226  A    between atoms: _597  and  _599
REMARK  227  A    between atoms: _599  and  _600
REMARK  228  A    between atoms: _599  and  _602
REMARK  229  A    between atoms: _602  and  _603
REMARK  230  A    between atoms: _606  and  _608
REMARK  231  A    between atoms: _608  and  _609
REMARK  232  A    between atoms: _608  and  _611
REMARK  233  A    between atoms: _611  and  _612
REMARK  234  A    between atoms: _615  and  _617
REMARK  235  A    between atoms: _617  and  _618
REMARK  236  A    between atoms: _617  and  _620
REMARK  237  A    between atoms: _620  and  _621
REMARK  238  A    between atoms: _624  and  _626
REMARK  239  A    between atoms: _626  and  _627
REMARK  240  A    between atoms: _626  and  _629
REMARK  241  A    between atoms: _629  and  _630
REMARK  242  A    between atoms: _630  and  _631
REMARK                            x       y       z     vdW  Elec       q    Type
REMARK                         _______ _______ _______ _____ _____    ______ ____
ROOT
ATOM      1  CB  HIS A   1      -0.254  60.163  79.872  0.00  0.00    +0.072 C 
ENDROOT
BRANCH   1   2
ATOM      2  CG  HIS A   1      -1.241  61.019  80.610  0.00  0.00    +0.082 A 
ATOM      3  CD2 HIS A   1      -1.601  61.040  81.916  0.00  0.00    +0.115 A 
ATOM      4  NE2 HIS A   1      -2.544  62.028  82.063  0.00  0.00    -0.221 NA
ATOM      5  CE1 HIS A   1      -2.756  62.597  80.889  0.00  0.00    +0.199 A 
ATOM      6  ND1 HIS A   1      -1.982  62.008  79.995  0.00  0.00    -0.227 NA
ENDBRANCH   1   2
BRANCH   1   7
ATOM      7  CA  HIS A   1       0.900  60.957  79.245  0.00  0.00    +0.139 C 
BRANCH   7   8
ATOM      8  N   HIS A   1       2.075  60.125  79.072  0.00  0.00    -0.239 NA
ATOM      9  H   HIS A   1       2.508  59.684  79.908  0.00  0.00    +0.142 HD
ENDBRANCH   7   8
BRANCH   7  10
ATOM     10  C   HIS A   1       1.252  62.118  80.166  0.00  0.00    +0.224 C 
ATOM     11  O   HIS A   1       1.816  61.911  81.245  0.00  0.00    -0.287 OA
ENDBRANCH   7  10
ENDBRANCH   1   7
TORSDOF 4
REMARK  Name = ../refined-set-2016/1k1y/1k1y_pocket.pdb
REMARK  242 active torsions:
REMARK  status: ('A' for Active; 'I' for Inactive)
REMARK    1  A    between atoms: _1  and  _3
REMARK    2  A    between atoms: _3  and  _4
REMARK    3  A    between atoms: _3  and  _6
REMARK    4  A    between atoms: _6  and  _7
REMARK    5  A    between atoms: _12  and  _14
REMARK    6  A    between atoms: _14  and  _15
REMARK    7  A    between atoms: _14  and  _17
REMARK    8  A    between atoms: _17  and  _18
REMARK    9  A    between atoms: _23  and  _25
REMARK   10  A    between atoms: _25  and  _26
REMARK   11  A    between atoms: _25  and  _28
REMARK   12  A    between atoms: _28  and  _29
REMARK   13  A    between atoms: _34  and  _36
REMARK   14  A    between atoms: _36  and  _37
REMARK   15  A    between atoms: _36  and  _39
REMARK   16  A    between atoms: _39  and  _40
REMARK   17  A    between atoms: _40  and  _41
REMARK   18  A    between atoms: _47  and  _48
REMARK   19  A    between atoms: _53  and  _55
REMARK   20  A    between atoms: _55  and  _56
REMARK   21  A    between atoms: _55  and  _58
REMARK   22  A    between atoms: _58  and  _59
REMARK   23  A    between atoms: _64  and  _66
REMARK   24  A    between atoms: _66  and  _67
REMARK   25  A    between atoms: _66  and  _69
REMARK   26  A    between atoms: _69  and  _70
REMARK   27  A    between atoms: _75  and  _76
REMARK   28  A    between atoms: _78  and  _80
REMARK   29  A    between atoms: _80  and  _81
REMARK   30  A    between atoms: _80  and  _83
REMARK   31  A    between atoms: _83  and  _84
REMARK   32  A    between atoms: _89  and  _91
REMARK   33  A    between atoms: _91  and  _92
REMARK   34  A    between atoms: _91  and  _94
REMARK   35  A    between atoms: _94  and  _95
REMARK   36  A    between atoms: _95  and  _96
REMARK   37  A    between atoms: _99  and  _101
REMARK   38  A    between atoms: _101  and  _102
REMARK   39  A    between atoms: _101  and  _104
REMARK   40  A    between atoms: _104  and  _105
REMARK   41  A    between atoms: _115  and  _117
REMARK   42  A    between atoms: _117  and  _118
REMARK   43  A    between atoms: _117  and  _120
REMARK   44  A    between atoms: _120  and  _121
REMARK   45  A    between atoms: _124  and  _126
REMARK   46  A    between atoms: _126  and  _127
REMARK   47  A    between atoms: _126  and  _129
REMARK   48  A    between atoms: _129  and  _130
REMARK   49  A    between atoms: _133  and  _135
REMARK   50  A    between atoms: _135  and  _136
REMARK   51  A    between atoms: _135  and  _138
REMARK   52  A    between atoms: _138  and  _139
REMARK   53  A    between atoms: _139  and  _140
REMARK   54  A    between atoms: _143  and  _145
REMARK   55  A    between atoms: _145  and  _146
REMARK   56  A    between atoms: _145  and  _148
REMARK   57  A    between atoms: _148  and  _149
REMARK   58  A    between atoms: _149  and  _150
REMARK   59  A    between atoms: _150  and  _151
REMARK   60  A    between atoms: _160  and  _162
REMARK   61  A    between atoms: _162  and  _163
REMARK   62  A    between atoms: _162  and  _165
REMARK   63  A    between atoms: _165  and  _166
REMARK   64  A    between atoms: _169  and  _171
REMARK   65  A    between atoms: _171  and  _172
REMARK   66  A    between atoms: _171  and  _174
REMARK   67  A    between atoms: _174  and  _175
REMARK   68  A    between atoms: _178  and  _180
REMARK   69  A    between atoms: _180  and  _181
REMARK   70  A    between atoms: _180  and  _183
REMARK   71  A    between atoms: _183  and  _184
REMARK   72  A    between atoms: _187  and  _189
REMARK   73  A    between atoms: _189  and  _190
REMARK   74  A    between atoms: _189  and  _192
REMARK   75  A    between atoms: _192  and  _193
REMARK   76  A    between atoms: _193  and  _194
REMARK   77  A    between atoms: _197  and  _199
REMARK   78  A    between atoms: _199  and  _200
REMARK   79  A    between atoms: _199  and  _202
REMARK   80  A    between atoms: _202  and  _203
REMARK   81  A    between atoms: _203  and  _204
REMARK   82  A    between atoms: _204  and  _205
REMARK   83  A    between atoms: _205  and  _206
REMARK   84  A    between atoms: _210  and  _212
REMARK   85  A    between atoms: _212  and  _213
REMARK   86  A    between atoms: _212  and  _215
REMARK   87  A    between atoms: _215  and  _216
REMARK   88  A    between atoms: _219  and  _221
REMARK   89  A    between atoms: _221  and  _222
REMARK   90  A    between atoms: _221  and  _224
REMARK   91  A    between atoms: _224  and  _225
REMARK   92  A    between atoms: _225  and  _226
REMARK   93  A    between atoms: _226  and  _227
REMARK   94  A    between atoms: _236  and  _238
REMARK   95  A    between atoms: _238  and  _239
REMARK   96  A    between atoms: _238  and  _241
REMARK   97  A    between atoms: _241  and  _242
REMARK   98  A    between atoms: _247  and  _248
REMARK   99  A    between atoms: _250  and  _252
REMARK  100  A    between atoms: _252  and  _253
REMARK  101  A    between atoms: _252  and  _255
REMARK  102  A    between atoms: _255  and  _256
REMARK  103  A    between atoms: _259  and  _261
REMARK  104  A    between atoms: _261  and  _262
REMARK  105  A    between atoms: _261  and  _264
REMARK  106  A    between atoms: _264  and  _265
REMARK  107  A    between atoms: _269  and  _270
REMARK  108  A    between atoms: _275  and  _277
REMARK  109  A    between atoms: _277  and  _278
REMARK  110  A    between atoms: _277  and  _280
REMARK  111  A    between atoms: _280  and  _281
REMARK  112  A    between atoms: _287  and  _289
REMARK  113  A    between atoms: _289  and  _290
REMARK  114  A    between atoms: _289  and  _292
REMARK  115  A    between atoms: _292  and  _293
REMARK  116  A    between atoms: _293  and  _294
REMARK  117  A    between atoms: _294  and  _295
REMARK  118  A    between atoms: _304  and  _306
REMARK  119  A    between atoms: _306  and  _307
REMARK  120  A    between atoms: _306  and  _309
REMARK  121  A    between atoms: _309  and  _310
REMARK  122  A    between atoms: _316  and  _318
REMARK  123  A    between atoms: _318  and  _319
REMARK  124  A    between atoms: _318  and  _321
REMARK  125  A    between atoms: _321  and  _322
REMARK  126  A    between atoms: _327  and  _329
REMARK  127  A    between atoms: _329  and  _330
REMARK  128  A    between atoms: _329  and  _332
REMARK  129  A    between atoms: _332  and  _333
REMARK  130  A    between atoms: _336  and  _338
REMARK  131  A    between atoms: _338  and  _339
REMARK  132  A    between atoms: _338  and  _341
REMARK  133  A    between atoms: _341  and  _342
REMARK  134  A    between atoms: _345  and  _347
REMARK  135  A    between atoms: _347  and  _348
REMARK  136  A    between atoms: _350  and  _352
REMARK  137  A    between atoms: _352  and  _353
REMARK  138  A    between atoms: _352  and  _355
REMARK  139  A    between atoms: _355  and  _356
REMARK  140  A    between atoms: _356  and  _357
REMARK  141  A    between atoms: _360  and  _362
REMARK  142  A    between atoms: _362  and  _363
REMARK  143  A    between atoms: _362  and  _365
REMARK  144  A    between atoms: _365  and  _366
REMARK  145  A    between atoms: _366  and  _367
REMARK  146  A    between atoms: _367  and  _368
REMARK  147  A    between atoms: _368  and  _369
REMARK  148  A    between atoms: _373  and  _375
REMARK  149  A    between atoms: _375  and  _376
REMARK  150  A    between atoms: _375  and  _378
REMARK  151  A    between atoms: _378  and  _379
REMARK  152  A    between atoms: _390  and  _391
REMARK  153  A    between atoms: _396  and  _398
REMARK  154  A    between atoms: _398  and  _399
REMARK  155  A    between atoms: _401  and  _403
REMARK  156  A    between atoms: _403  and  _404
REMARK  157  A    between atoms: _403  and  _406
REMARK  158  A    between atoms: _406  and  _407
REMARK  159  A    between atoms: _410  and  _412
REMARK  160  A    between atoms: _412  and  _413
REMARK  161  A    between atoms: _412  and  _415
REMARK  162  A    between atoms: _415  and  _416
REMARK  163  A    between atoms: _418  and  _420
REMARK  164  A    between atoms: _420  and  _421
REMARK  165  A    between atoms: _420  and  _423
REMARK  166  A    between atoms: _423  and  _424
REMARK  167  A    between atoms: _429  and  _430
REMARK  168  A    between atoms: _432  and  _434
REMARK  169  A    between atoms: _434  and  _435
REMARK  170  A    between atoms: _434  and  _437
REMARK  171  A    between atoms: _437  and  _438
REMARK  172  A    between atoms: _444  and  _446
REMARK  173  A    between atoms: _446  and  _447
REMARK  174  A    between atoms: _446  and  _449
REMARK  175  A    between atoms: _449  and  _450
REMARK  176  A    between atoms: _450  and  _451
REMARK  177  A    between atoms: _454  and  _456
REMARK  178  A    between atoms: _456  and  _457
REMARK  179  A    between atoms: _456  and  _459
REMARK  180  A    between atoms: _459  and  _460
REMARK  181  A    between atoms: _460  and  _461
REMARK  182  A    between atoms: _463  and  _465
REMARK  183  A    between atoms: _465  and  _466
REMARK  184  A    between atoms: _465  and  _468
REMARK  185  A    between atoms: _468  and  _469
REMARK  186  A    between atoms: _479  and  _481
REMARK  187  A    between atoms: _481  and  _482
REMARK  188  A    between atoms: _481  and  _484
REMARK  189  A    between atoms: _484  and  _485
REMARK  190  A    between atoms: _495  and  _497
REMARK  191  A    between atoms: _497  and  _498
REMARK  192  A    between atoms: _497  and  _500
REMARK  193  A    between atoms: _500  and  _501
REMARK  194  A    between atoms: _506  and  _508
REMARK  195  A    between atoms: _508  and  _509
REMARK  196  A    between atoms: _508  and  _511
REMARK  197  A    between atoms: _511  and  _512
REMARK  198  A    between atoms: _515  and  _517
REMARK  199  A    between atoms: _517  and  _518
REMARK  200  A    between atoms: _521  and  _523
REMARK  201  A    between atoms: _523  and  _524
REMARK  202  A    between atoms: _523  and  _526
REMARK  203  A    between atoms: _526  and  _527
REMARK  204  A    between atoms: _532  and  _533
REMARK  205  A    between atoms: _535  and  _537
REMARK  206  A    between atoms: _537  and  _538
REMARK  207  A    between atoms: _537  and  _540
REMARK  208  A    between atoms: _540  and  _541
REMARK  209  A    between atoms: _551  and  _553
REMARK  210  A    between atoms: _553  and  _554
REMARK  211  A    between atoms: _553  and  _556
REMARK  212  A    between atoms: _556  and  _557
REMARK  213  A    between atoms: _562  and  _564
REMARK  214  A    between atoms: _564  and  _565
REMARK  215  A    between atoms: _567  and  _569
REMARK  216  A    between atoms: _569  and  _570
REMARK  217  A    between atoms: _569  and  _572
REMARK  218  A    between atoms: _575  and  _577
REMARK  219  A    between atoms: _577  and  _578
REMARK  220  A    between atoms: _577  and  _580
REMARK  221  A    between atoms: _580  and  _581
REMARK  222  A    between atoms: _587  and  _589
REMARK  223  A    between atoms: _589  and  _590
REMARK  224  A    between atoms: _592  and  _594
REMARK  225  A    between atoms: _594  and  _595
REMARK  226  A    between atoms: _597  and  _599
REMARK  227  A    between atoms: _599  and  _600
REMARK  228  A    between atoms: _599  and  _602
REMARK  229  A    between atoms: _602  and  _603
REMARK  230  A    between atoms: _606  and  _608
REMARK  231  A    between atoms: _608  and  _609
REMARK  232  A    between atoms: _608  and  _611
REMARK  233  A    between atoms: _611  and  _612
REMARK  234  A    between atoms: _615  and  _617
REMARK  235  A    between atoms: _617  and  _618
REMARK  236  A    between atoms: _617  and  _620
REMARK  237  A    between atoms: _620  and  _621
REMARK  238  A    between atoms: _624  and  _626
REMARK  239  A    between atoms: _626  and  _627
REMARK  240  A    between atoms: _626  and  _629
REMARK  241  A    between atoms: _629  and  _630
REMARK  242  A    between atoms: _630  and  _631
REMARK                            x       y       z     vdW  Elec       q    Type
REMARK                         _______ _______ _______ _____ _____    ______ ____
ROOT
ATOM      1  CA  GLU A   1      -7.146  65.023  85.168  0.00  0.00    +0.134 C 
ENDROOT
BRANCH   1   2
ATOM      2  N   GLU A   1      -7.113  66.257  84.371  0.00  0.00    -0.239 NA
ATOM      3  H   GLU A   1      -6.848  66.201  83.367  0.00  0.00    +0.142 HD
ENDBRANCH   1   2
BRANCH   1   4
ATOM      4  C   GLU A   1      -8.456  64.732  85.878  0.00  0.00    +0.224 C 
ATOM      5  O   GLU A   1      -8.472  64.496  87.086  0.00  0.00    -0.287 OA
ENDBRANCH   1   4
BRANCH   1   6
ATOM      6  CB  GLU A   1      -6.061  64.988  86.246  0.00  0.00    +0.037 C 
BRANCH   6   7
ATOM      7  CG  GLU A   1      -4.695  64.578  85.781  0.00  0.00    +0.116 C 
BRANCH   7   8
ATOM      8  CD  GLU A   1      -4.634  63.240  85.098  0.00  0.00    +0.365 C 
ATOM      9  OE2 GLU A   1      -4.996  62.201  85.690  0.00  0.00    -0.246 OA
ATOM     10  OE1 GLU A   1      -4.187  63.242  83.945  0.00  0.00    -0.246 OA
ENDBRANCH   7   8
ENDBRANCH   6   7
ENDBRANCH   1   6
TORSDOF 5
REMARK  Name = ../refined-set-2016/1k1y/1k1y_pocket.pdb
REMARK  242 active torsions:
REMARK  status: ('A' for Active; 'I' for Inactive)
REMARK    1  A    between atoms: _1  and  _3
REMARK    2  A    between atoms: _3  and  _4
REMARK    3  A    between atoms: _3  and  _6
REMARK    4  A    between atoms: _6  and  _7
REMARK    5  A    between atoms: _12  and  _14
REMARK    6  A    between atoms: _14  and  _15
REMARK    7  A    between atoms: _14  and  _17
REMARK    8  A    between atoms: _17  and  _18
REMARK    9  A    between atoms: _23  and  _25
REMARK   10  A    between atoms: _25  and  _26
REMARK   11  A    between atoms: _25  and  _28
REMARK   12  A    between atoms: _28  and  _29
REMARK   13  A    between atoms: _34  and  _36
REMARK   14  A    between atoms: _36  and  _37
REMARK   15  A    between atoms: _36  and  _39
REMARK   16  A    between atoms: _39  and  _40
REMARK   17  A    between atoms: _40  and  _41
REMARK   18  A    between atoms: _47  and  _48
REMARK   19  A    between atoms: _53  and  _55
REMARK   20  A    between atoms: _55  and  _56
REMARK   21  A    between atoms: _55  and  _58
REMARK   22  A    between atoms: _58  and  _59
REMARK   23  A    between atoms: _64  and  _66
REMARK   24  A    between atoms: _66  and  _67
REMARK   25  A    between atoms: _66  and  _69
REMARK   26  A    between atoms: _69  and  _70
REMARK   27  A    between atoms: _75  and  _76
REMARK   28  A    between atoms: _78  and  _80
REMARK   29  A    between atoms: _80  and  _81
REMARK   30  A    between atoms: _80  and  _83
REMARK   31  A    between atoms: _83  and  _84
REMARK   32  A    between atoms: _89  and  _91
REMARK   33  A    between atoms: _91  and  _92
REMARK   34  A    between atoms: _91  and  _94
REMARK   35  A    between atoms: _94  and  _95
REMARK   36  A    between atoms: _95  and  _96
REMARK   37  A    between atoms: _99  and  _101
REMARK   38  A    between atoms: _101  and  _102
REMARK   39  A    between atoms: _101  and  _104
REMARK   40  A    between atoms: _104  and  _105
REMARK   41  A    between atoms: _115  and  _117
REMARK   42  A    between atoms: _117  and  _118
REMARK   43  A    between atoms: _117  and  _120
REMARK   44  A    between atoms: _120  and  _121
REMARK   45  A    between atoms: _124  and  _126
REMARK   46  A    between atoms: _126  and  _127
REMARK   47  A    between atoms: _126  and  _129
REMARK   48  A    between atoms: _129  and  _130
REMARK   49  A    between atoms: _133  and  _135
REMARK   50  A    between atoms: _135  and  _136
REMARK   51  A    between atoms: _135  and  _138
REMARK   52  A    between atoms: _138  and  _139
REMARK   53  A    between atoms: _139  and  _140
REMARK   54  A    between atoms: _143  and  _145
REMARK   55  A    between atoms: _145  and  _146
REMARK   56  A    between atoms: _145  and  _148
REMARK   57  A    between atoms: _148  and  _149
REMARK   58  A    between atoms: _149  and  _150
REMARK   59  A    between atoms: _150  and  _151
REMARK   60  A    between atoms: _160  and  _162
REMARK   61  A    between atoms: _162  and  _163
REMARK   62  A    between atoms: _162  and  _165
REMARK   63  A    between atoms: _165  and  _166
REMARK   64  A    between atoms: _169  and  _171
REMARK   65  A    between atoms: _171  and  _172
REMARK   66  A    between atoms: _171  and  _174
REMARK   67  A    between atoms: _174  and  _175
REMARK   68  A    between atoms: _178  and  _180
REMARK   69  A    between atoms: _180  and  _181
REMARK   70  A    between atoms: _180  and  _183
REMARK   71  A    between atoms: _183  and  _184
REMARK   72  A    between atoms: _187  and  _189
REMARK   73  A    between atoms: _189  and  _190
REMARK   74  A    between atoms: _189  and  _192
REMARK   75  A    between atoms: _192  and  _193
REMARK   76  A    between atoms: _193  and  _194
REMARK   77  A    between atoms: _197  and  _199
REMARK   78  A    between atoms: _199  and  _200
REMARK   79  A    between atoms: _199  and  _202
REMARK   80  A    between atoms: _202  and  _203
REMARK   81  A    between atoms: _203  and  _204
REMARK   82  A    between atoms: _204  and  _205
REMARK   83  A    between atoms: _205  and  _206
REMARK   84  A    between atoms: _210  and  _212
REMARK   85  A    between atoms: _212  and  _213
REMARK   86  A    between atoms: _212  and  _215
REMARK   87  A    between atoms: _215  and  _216
REMARK   88  A    between atoms: _219  and  _221
REMARK   89  A    between atoms: _221  and  _222
REMARK   90  A    between atoms: _221  and  _224
REMARK   91  A    between atoms: _224  and  _225
REMARK   92  A    between atoms: _225  and  _226
REMARK   93  A    between atoms: _226  and  _227
REMARK   94  A    between atoms: _236  and  _238
REMARK   95  A    between atoms: _238  and  _239
REMARK   96  A    between atoms: _238  and  _241
REMARK   97  A    between atoms: _241  and  _242
REMARK   98  A    between atoms: _247  and  _248
REMARK   99  A    between atoms: _250  and  _252
REMARK  100  A    between atoms: _252  and  _253
REMARK  101  A    between atoms: _252  and  _255
REMARK  102  A    between atoms: _255  and  _256
REMARK  103  A    between atoms: _259  and  _261
REMARK  104  A    between atoms: _261  and  _262
REMARK  105  A    between atoms: _261  and  _264
REMARK  106  A    between atoms: _264  and  _265
REMARK  107  A    between atoms: _269  and  _270
REMARK  108  A    between atoms: _275  and  _277
REMARK  109  A    between atoms: _277  and  _278
REMARK  110  A    between atoms: _277  and  _280
REMARK  111  A    between atoms: _280  and  _281
REMARK  112  A    between atoms: _287  and  _289
REMARK  113  A    between atoms: _289  and  _290
REMARK  114  A    between atoms: _289  and  _292
REMARK  115  A    between atoms: _292  and  _293
REMARK  116  A    between atoms: _293  and  _294
REMARK  117  A    between atoms: _294  and  _295
REMARK  118  A    between atoms: _304  and  _306
REMARK  119  A    between atoms: _306  and  _307
REMARK  120  A    between atoms: _306  and  _309
REMARK  121  A    between atoms: _309  and  _310
REMARK  122  A    between atoms: _316  and  _318
REMARK  123  A    between atoms: _318  and  _319
REMARK  124  A    between atoms: _318  and  _321
REMARK  125  A    between atoms: _321  and  _322
REMARK  126  A    between atoms: _327  and  _329
REMARK  127  A    between atoms: _329  and  _330
REMARK  128  A    between atoms: _329  and  _332
REMARK  129  A    between atoms: _332  and  _333
REMARK  130  A    between atoms: _336  and  _338
REMARK  131  A    between atoms: _338  and  _339
REMARK  132  A    between atoms: _338  and  _341
REMARK  133  A    between atoms: _341  and  _342
REMARK  134  A    between atoms: _345  and  _347
REMARK  135  A    between atoms: _347  and  _348
REMARK  136  A    between atoms: _350  and  _352
REMARK  137  A    between atoms: _352  and  _353
REMARK  138  A    between atoms: _352  and  _355
REMARK  139  A    between atoms: _355  and  _356
REMARK  140  A    between atoms: _356  and  _357
REMARK  141  A    between atoms: _360  and  _362
REMARK  142  A    between atoms: _362  and  _363
REMARK  143  A    between atoms: _362  and  _365
REMARK  144  A    between atoms: _365  and  _366
REMARK  145  A    between atoms: _366  and  _367
REMARK  146  A    between atoms: _367  and  _368
REMARK  147  A    between atoms: _368  and  _369
REMARK  148  A    between atoms: _373  and  _375
REMARK  149  A    between atoms: _375  and  _376
REMARK  150  A    between atoms: _375  and  _378
REMARK  151  A    between atoms: _378  and  _379
REMARK  152  A    between atoms: _390  and  _391
REMARK  153  A    between atoms: _396  and  _398
REMARK  154  A    between atoms: _398  and  _399
REMARK  155  A    between atoms: _401  and  _403
REMARK  156  A    between atoms: _403  and  _404
REMARK  157  A    between atoms: _403  and  _406
REMARK  158  A    between atoms: _406  and  _407
REMARK  159  A    between atoms: _410  and  _412
REMARK  160  A    between atoms: _412  and  _413
REMARK  161  A    between atoms: _412  and  _415
REMARK  162  A    between atoms: _415  and  _416
REMARK  163  A    between atoms: _418  and  _420
REMARK  164  A    between atoms: _420  and  _421
REMARK  165  A    between atoms: _420  and  _423
REMARK  166  A    between atoms: _423  and  _424
REMARK  167  A    between atoms: _429  and  _430
REMARK  168  A    between atoms: _432  and  _434
REMARK  169  A    between atoms: _434  and  _435
REMARK  170  A    between atoms: _434  and  _437
REMARK  171  A    between atoms: _437  and  _438
REMARK  172  A    between atoms: _444  and  _446
REMARK  173  A    between atoms: _446  and  _447
REMARK  174  A    between atoms: _446  and  _449
REMARK  175  A    between atoms: _449  and  _450
REMARK  176  A    between atoms: _450  and  _451
REMARK  177  A    between atoms: _454  and  _456
REMARK  178  A    between atoms: _456  and  _457
REMARK  179  A    between atoms: _456  and  _459
REMARK  180  A    between atoms: _459  and  _460
REMARK  181  A    between atoms: _460  and  _461
REMARK  182  A    between atoms: _463  and  _465
REMARK  183  A    between atoms: _465  and  _466
REMARK  184  A    between atoms: _465  and  _468
REMARK  185  A    between atoms: _468  and  _469
REMARK  186  A    between atoms: _479  and  _481
REMARK  187  A    between atoms: _481  and  _482
REMARK  188  A    between atoms: _481  and  _484
REMARK  189  A    between atoms: _484  and  _485
REMARK  190  A    between atoms: _495  and  _497
REMARK  191  A    between atoms: _497  and  _498
REMARK  192  A    between atoms: _497  and  _500
REMARK  193  A    between atoms: _500  and  _501
REMARK  194  A    between atoms: _506  and  _508
REMARK  195  A    between atoms: _508  and  _509
REMARK  196  A    between atoms: _508  and  _511
REMARK  197  A    between atoms: _511  and  _512
REMARK  198  A    between atoms: _515  and  _517
REMARK  199  A    between atoms: _517  and  _518
REMARK  200  A    between atoms: _521  and  _523
REMARK  201  A    between atoms: _523  and  _524
REMARK  202  A    between atoms: _523  and  _526
REMARK  203  A    between atoms: _526  and  _527
REMARK  204  A    between atoms: _532  and  _533
REMARK  205  A    between atoms: _535  and  _537
REMARK  206  A    between atoms: _537  and  _538
REMARK  207  A    between atoms: _537  and  _540
REMARK  208  A    between atoms: _540  and  _541
REMARK  209  A    between atoms: _551  and  _553
REMARK  210  A    between atoms: _553  and  _554
REMARK  211  A    between atoms: _553  and  _556
REMARK  212  A    between atoms: _556  and  _557
REMARK  213  A    between atoms: _562  and  _564
REMARK  214  A    between atoms: _564  and  _565
REMARK  215  A    between atoms: _567  and  _569
REMARK  216  A    between atoms: _569  and  _570
REMARK  217  A    between atoms: _569  and  _572
REMARK  218  A    between atoms: _575  and  _577
REMARK  219  A    between atoms: _577  and  _578
REMARK  220  A    between atoms: _577  and  _580
REMARK  221  A    between atoms: _580  and  _581
REMARK  222  A    between atoms: _587  and  _589
REMARK  223  A    between atoms: _589  and  _590
REMARK  224  A    between atoms: _592  and  _594
REMARK  225  A    between atoms: _594  and  _595
REMARK  226  A    between atoms: _597  and  _599
REMARK  227  A    between atoms: _599  and  _600
REMARK  228  A    between atoms: _599  and  _602
REMARK  229  A    between atoms: _602  and  _603
REMARK  230  A    between atoms: _606  and  _608
REMARK  231  A    between atoms: _608  and  _609
REMARK  232  A    between atoms: _608  and  _611
REMARK  233  A    between atoms: _611  and  _612
REMARK  234  A    between atoms: _615  and  _617
REMARK  235  A    between atoms: _617  and  _618
REMARK  236  A    between atoms: _617  and  _620
REMARK  237  A    between atoms: _620  and  _621
REMARK  238  A    between atoms: _624  and  _626
REMARK  239  A    between atoms: _626  and  _627
REMARK  240  A    between atoms: _626  and  _629
REMARK  241  A    between atoms: _629  and  _630
REMARK  242  A    between atoms: _630  and  _631
REMARK                            x       y       z     vdW  Elec       q    Type
REMARK                         _______ _______ _______ _____ _____    ______ ____
ROOT
ATOM      1  CA  THR A   3      -7.266  58.707  85.448  0.00  0.00    +0.176 C 
ENDROOT
BRANCH   1   4
ATOM      2  C   LEU A   2      -7.288  56.877  83.865  0.00  0.00    +0.241 C 
ATOM      3  O   LEU A   2      -6.693  56.141  84.654  0.00  0.00    -0.273 OA
ATOM      4  N   THR A   3      -7.628  58.126  84.161  0.00  0.00    -0.295 N 
ATOM      5  H   THR A   3      -8.157  58.694  83.469  0.00  0.00    +0.150 HD
BRANCH   2   6
ATOM      6  CA  LEU A   2      -7.695  56.368  82.492  0.00  0.00    +0.149 C 
BRANCH   6   8
ATOM      7  C   TRP A   1      -5.875  57.231  81.124  0.00  0.00    +0.239 C 
ATOM      8  N   LEU A   2      -6.500  56.191  81.666  0.00  0.00    -0.297 N 
ATOM      9  H   LEU A   2      -6.133  55.232  81.500  0.00  0.00    +0.150 HD
ATOM     10  O   TRP A   1      -6.277  58.378  81.244  0.00  0.00    -0.274 OA
BRANCH   7  11
ATOM     11  CA  TRP A   1      -4.630  56.954  80.287  0.00  0.00    +0.149 C 
BRANCH  11  12
ATOM     12  N   TRP A   1      -5.023  57.472  78.995  0.00  0.00    -0.238 NA
ATOM     13  H   TRP A   1      -4.781  58.449  78.733  0.00  0.00    +0.142 HD
ENDBRANCH  11  12
BRANCH  11  14
ATOM     14  CB  TRP A   1      -3.444  57.730  80.857  0.00  0.00    +0.054 C 
BRANCH  14  15
ATOM     15  CG  TRP A   1      -3.297  57.544  82.336  0.00  0.00    -0.002 A 
ATOM     16  CD1 TRP A   1      -3.859  58.311  83.320  0.00  0.00    +0.068 A 
ATOM     17  NE1 TRP A   1      -3.566  57.785  84.552  0.00  0.00    -0.352 N 
ATOM     18  HE1 TRP A   1      -3.873  58.177  85.465  0.00  0.00    +0.166 HD
ATOM     19  CE2 TRP A   1      -2.802  56.658  84.386  0.00  0.00    +0.056 A 
ATOM     20  CZ2 TRP A   1      -2.265  55.785  85.339  0.00  0.00    +0.017 A 
ATOM     21  CH2 TRP A   1      -1.528  54.721  84.882  0.00  0.00    +0.001 A 
ATOM     22  CZ3 TRP A   1      -1.318  54.509  83.502  0.00  0.00    +0.000 A 
ATOM     23  CE3 TRP A   1      -1.856  55.383  82.555  0.00  0.00    +0.001 A 
ATOM     24  CD2 TRP A   1      -2.611  56.476  83.000  0.00  0.00    +0.013 A 
ENDBRANCH  14  15
ENDBRANCH  11  14
ENDBRANCH   7  11
ENDBRANCH   6   8
BRANCH   6  25
ATOM     25  CB  LEU A   2      -8.445  55.045  82.669  0.00  0.00    +0.029 C 
BRANCH  25  26
ATOM     26  CG  LEU A   2      -9.895  54.947  82.184  0.00  0.00    +0.002 C 
ATOM     27  CD2 LEU A   2     -10.572  53.803  82.945  0.00  0.00    +0.000 C 
ATOM     28  CD1 LEU A   2     -10.649  56.258  82.391  0.00  0.00    +0.000 C 
ENDBRANCH  25  26
ENDBRANCH   6  25
ENDBRANCH   2   6
ENDBRANCH   1   4
BRANCH   1  29
ATOM     29  C   THR A   3      -7.815  57.860  86.587  0.00  0.00    +0.243 C 
ATOM     30  N   GLU A   4      -6.900  57.376  87.418  0.00  0.00    -0.297 N 
ATOM     31  H   GLU A   4      -5.903  57.621  87.253  0.00  0.00    +0.150 HD
ATOM     32  O   THR A   3      -9.019  57.644  86.699  0.00  0.00    -0.273 OA
BRANCH  30  33
ATOM     33  CA  GLU A   4      -7.223  56.522  88.546  0.00  0.00    +0.149 C 
BRANCH  33  34
ATOM     34  C   GLU A   4      -7.896  55.251  88.035  0.00  0.00    +0.241 C 
ATOM     35  O   GLU A   4      -8.487  54.497  88.801  0.00  0.00    -0.273 OA
ATOM     36  N   ARG A   5      -7.781  55.031  86.727  0.00  0.00    -0.298 N 
ATOM     37  H   ARG A   5      -7.264  55.726  86.151  0.00  0.00    +0.150 HD
BRANCH  36  38
ATOM     38  CA  ARG A   5      -8.344  53.864  86.064  0.00  0.00    +0.137 C 
BRANCH  38  39
ATOM     39  C   ARG A   5      -9.751  53.475  86.527  0.00  0.00    +0.227 C 
ATOM     40  O   ARG A   5     -10.058  52.288  86.654  0.00  0.00    -0.286 OA
ENDBRANCH  38  39
BRANCH  38  41
ATOM     41  CB  ARG A   5      -7.399  52.667  86.231  0.00  0.00    +0.031 C 
BRANCH  41  42
ATOM     42  CG  ARG A   5      -6.067  52.806  85.502  0.00  0.00    +0.045 C 
BRANCH  42  43
ATOM     43  CD  ARG A   5      -4.928  53.286  86.412  0.00  0.00    +0.174 C 
BRANCH  43  44
ATOM     44  NE  ARG A   5      -4.157  52.183  86.993  0.00  0.00    -0.265 N 
ATOM     45  CZ  ARG A   5      -3.015  52.341  87.660  0.00  0.00    +0.342 C 
ATOM     46  NH2 ARG A   5      -2.371  51.287  88.151  0.00  0.00    -0.292 N 
ATOM     47 HH21 ARG A   5      -1.480  51.418  88.671  0.00  0.00    +0.255 HD
ATOM     48 HH22 ARG A   5      -2.758  50.331  88.015  0.00  0.00    +0.255 HD
ATOM     49  NH1 ARG A   5      -2.512  53.558  87.831  0.00  0.00    -0.292 N 
ATOM     50 HH11 ARG A   5      -1.620  53.684  88.351  0.00  0.00    +0.255 HD
ATOM     51 HH12 ARG A   5      -3.010  54.385  87.444  0.00  0.00    +0.255 HD
ATOM     52  HE  ARG A   5      -4.525  51.217  86.877  0.00  0.00    +0.259 HD
ENDBRANCH  43  44
ENDBRANCH  42  43
ENDBRANCH  41  42
ENDBRANCH  38  41
ENDBRANCH  36  38
ENDBRANCH  33  34
BRANCH  33  53
ATOM     53  CB  GLU A   4      -8.132  57.237  89.552  0.00  0.00    +0.041 C 
BRANCH  53  54
ATOM     54  CG  GLU A   4      -7.499  58.423  90.264  0.00  0.00    +0.116 C 
BRANCH  54  55
ATOM     55  CD  GLU A   4      -6.056  58.181  90.704  0.00  0.00    +0.365 C 
ATOM     56  OE2 GLU A   4      -5.664  57.023  90.942  0.00  0.00    -0.246 OA
ATOM     57  OE1 GLU A   4      -5.308  59.165  90.826  0.00  0.00    -0.246 OA
ENDBRANCH  54  55
ENDBRANCH  53  54
ENDBRANCH  33  53
ENDBRANCH  30  33
ENDBRANCH   1  29
BRANCH   1  58
ATOM     58  CB  THR A   3      -7.755  60.175  85.540  0.00  0.00    +0.137 C 
ATOM     59  CG2 THR A   3      -7.595  60.723  86.954  0.00  0.00    +0.034 C 
BRANCH  58  60
ATOM     60  OG1 THR A   3      -6.989  60.974  84.625  0.00  0.00    -0.382 OA
ATOM     61  HG1 THR A   3      -6.030  60.923  84.867  0.00  0.00    +0.210 HD
ENDBRANCH  58  60
ENDBRANCH   1  58
TORSDOF 23
REMARK  Name = ../refined-set-2016/1k1y/1k1y_pocket.pdb
REMARK  242 active torsions:
REMARK  status: ('A' for Active; 'I' for Inactive)
REMARK    1  A    between atoms: _1  and  _3
REMARK    2  A    between atoms: _3  and  _4
REMARK    3  A    between atoms: _3  and  _6
REMARK    4  A    between atoms: _6  and  _7
REMARK    5  A    between atoms: _12  and  _14
REMARK    6  A    between atoms: _14  and  _15
REMARK    7  A    between atoms: _14  and  _17
REMARK    8  A    between atoms: _17  and  _18
REMARK    9  A    between atoms: _23  and  _25
REMARK   10  A    between atoms: _25  and  _26
REMARK   11  A    between atoms: _25  and  _28
REMARK   12  A    between atoms: _28  and  _29
REMARK   13  A    between atoms: _34  and  _36
REMARK   14  A    between atoms: _36  and  _37
REMARK   15  A    between atoms: _36  and  _39
REMARK   16  A    between atoms: _39  and  _40
REMARK   17  A    between atoms: _40  and  _41
REMARK   18  A    between atoms: _47  and  _48
REMARK   19  A    between atoms: _53  and  _55
REMARK   20  A    between atoms: _55  and  _56
REMARK   21  A    between atoms: _55  and  _58
REMARK   22  A    between atoms: _58  and  _59
REMARK   23  A    between atoms: _64  and  _66
REMARK   24  A    between atoms: _66  and  _67
REMARK   25  A    between atoms: _66  and  _69
REMARK   26  A    between atoms: _69  and  _70
REMARK   27  A    between atoms: _75  and  _76
REMARK   28  A    between atoms: _78  and  _80
REMARK   29  A    between atoms: _80  and  _81
REMARK   30  A    between atoms: _80  and  _83
REMARK   31  A    between atoms: _83  and  _84
REMARK   32  A    between atoms: _89  and  _91
REMARK   33  A    between atoms: _91  and  _92
REMARK   34  A    between atoms: _91  and  _94
REMARK   35  A    between atoms: _94  and  _95
REMARK   36  A    between atoms: _95  and  _96
REMARK   37  A    between atoms: _99  and  _101
REMARK   38  A    between atoms: _101  and  _102
REMARK   39  A    between atoms: _101  and  _104
REMARK   40  A    between atoms: _104  and  _105
REMARK   41  A    between atoms: _115  and  _117
REMARK   42  A    between atoms: _117  and  _118
REMARK   43  A    between atoms: _117  and  _120
REMARK   44  A    between atoms: _120  and  _121
REMARK   45  A    between atoms: _124  and  _126
REMARK   46  A    between atoms: _126  and  _127
REMARK   47  A    between atoms: _126  and  _129
REMARK   48  A    between atoms: _129  and  _130
REMARK   49  A    between atoms: _133  and  _135
REMARK   50  A    between atoms: _135  and  _136
REMARK   51  A    between atoms: _135  and  _138
REMARK   52  A    between atoms: _138  and  _139
REMARK   53  A    between atoms: _139  and  _140
REMARK   54  A    between atoms: _143  and  _145
REMARK   55  A    between atoms: _145  and  _146
REMARK   56  A    between atoms: _145  and  _148
REMARK   57  A    between atoms: _148  and  _149
REMARK   58  A    between atoms: _149  and  _150
REMARK   59  A    between atoms: _150  and  _151
REMARK   60  A    between atoms: _160  and  _162
REMARK   61  A    between atoms: _162  and  _163
REMARK   62  A    between atoms: _162  and  _165
REMARK   63  A    between atoms: _165  and  _166
REMARK   64  A    between atoms: _169  and  _171
REMARK   65  A    between atoms: _171  and  _172
REMARK   66  A    between atoms: _171  and  _174
REMARK   67  A    between atoms: _174  and  _175
REMARK   68  A    between atoms: _178  and  _180
REMARK   69  A    between atoms: _180  and  _181
REMARK   70  A    between atoms: _180  and  _183
REMARK   71  A    between atoms: _183  and  _184
REMARK   72  A    between atoms: _187  and  _189
REMARK   73  A    between atoms: _189  and  _190
REMARK   74  A    between atoms: _189  and  _192
REMARK   75  A    between atoms: _192  and  _193
REMARK   76  A    between atoms: _193  and  _194
REMARK   77  A    between atoms: _197  and  _199
REMARK   78  A    between atoms: _199  and  _200
REMARK   79  A    between atoms: _199  and  _202
REMARK   80  A    between atoms: _202  and  _203
REMARK   81  A    between atoms: _203  and  _204
REMARK   82  A    between atoms: _204  and  _205
REMARK   83  A    between atoms: _205  and  _206
REMARK   84  A    between atoms: _210  and  _212
REMARK   85  A    between atoms: _212  and  _213
REMARK   86  A    between atoms: _212  and  _215
REMARK   87  A    between atoms: _215  and  _216
REMARK   88  A    between atoms: _219  and  _221
REMARK   89  A    between atoms: _221  and  _222
REMARK   90  A    between atoms: _221  and  _224
REMARK   91  A    between atoms: _224  and  _225
REMARK   92  A    between atoms: _225  and  _226
REMARK   93  A    between atoms: _226  and  _227
REMARK   94  A    between atoms: _236  and  _238
REMARK   95  A    between atoms: _238  and  _239
REMARK   96  A    between atoms: _238  and  _241
REMARK   97  A    between atoms: _241  and  _242
REMARK   98  A    between atoms: _247  and  _248
REMARK   99  A    between atoms: _250  and  _252
REMARK  100  A    between atoms: _252  and  _253
REMARK  101  A    between atoms: _252  and  _255
REMARK  102  A    between atoms: _255  and  _256
REMARK  103  A    between atoms: _259  and  _261
REMARK  104  A    between atoms: _261  and  _262
REMARK  105  A    between atoms: _261  and  _264
REMARK  106  A    between atoms: _264  and  _265
REMARK  107  A    between atoms: _269  and  _270
REMARK  108  A    between atoms: _275  and  _277
REMARK  109  A    between atoms: _277  and  _278
REMARK  110  A    between atoms: _277  and  _280
REMARK  111  A    between atoms: _280  and  _281
REMARK  112  A    between atoms: _287  and  _289
REMARK  113  A    between atoms: _289  and  _290
REMARK  114  A    between atoms: _289  and  _292
REMARK  115  A    between atoms: _292  and  _293
REMARK  116  A    between atoms: _293  and  _294
REMARK  117  A    between atoms: _294  and  _295
REMARK  118  A    between atoms: _304  and  _306
REMARK  119  A    between atoms: _306  and  _307
REMARK  120  A    between atoms: _306  and  _309
REMARK  121  A    between atoms: _309  and  _310
REMARK  122  A    between atoms: _316  and  _318
REMARK  123  A    between atoms: _318  and  _319
REMARK  124  A    between atoms: _318  and  _321
REMARK  125  A    between atoms: _321  and  _322
REMARK  126  A    between atoms: _327  and  _329
REMARK  127  A    between atoms: _329  and  _330
REMARK  128  A    between atoms: _329  and  _332
REMARK  129  A    between atoms: _332  and  _333
REMARK  130  A    between atoms: _336  and  _338
REMARK  131  A    between atoms: _338  and  _339
REMARK  132  A    between atoms: _338  and  _341
REMARK  133  A    between atoms: _341  and  _342
REMARK  134  A    between atoms: _345  and  _347
REMARK  135  A    between atoms: _347  and  _348
REMARK  136  A    between atoms: _350  and  _352
REMARK  137  A    between atoms: _352  and  _353
REMARK  138  A    between atoms: _352  and  _355
REMARK  139  A    between atoms: _355  and  _356
REMARK  140  A    between atoms: _356  and  _357
REMARK  141  A    between atoms: _360  and  _362
REMARK  142  A    between atoms: _362  and  _363
REMARK  143  A    between atoms: _362  and  _365
REMARK  144  A    between atoms: _365  and  _366
REMARK  145  A    between atoms: _366  and  _367
REMARK  146  A    between atoms: _367  and  _368
REMARK  147  A    between atoms: _368  and  _369
REMARK  148  A    between atoms: _373  and  _375
REMARK  149  A    between atoms: _375  and  _376
REMARK  150  A    between atoms: _375  and  _378
REMARK  151  A    between atoms: _378  and  _379
REMARK  152  A    between atoms: _390  and  _391
REMARK  153  A    between atoms: _396  and  _398
REMARK  154  A    between atoms: _398  and  _399
REMARK  155  A    between atoms: _401  and  _403
REMARK  156  A    between atoms: _403  and  _404
REMARK  157  A    between atoms: _403  and  _406
REMARK  158  A    between atoms: _406  and  _407
REMARK  159  A    between atoms: _410  and  _412
REMARK  160  A    between atoms: _412  and  _413
REMARK  161  A    between atoms: _412  and  _415
REMARK  162  A    between atoms: _415  and  _416
REMARK  163  A    between atoms: _418  and  _420
REMARK  164  A    between atoms: _420  and  _421
REMARK  165  A    between atoms: _420  and  _423
REMARK  166  A    between atoms: _423  and  _424
REMARK  167  A    between atoms: _429  and  _430
REMARK  168  A    between atoms: _432  and  _434
REMARK  169  A    between atoms: _434  and  _435
REMARK  170  A    between atoms: _434  and  _437
REMARK  171  A    between atoms: _437  and  _438
REMARK  172  A    between atoms: _444  and  _446
REMARK  173  A    between atoms: _446  and  _447
REMARK  174  A    between atoms: _446  and  _449
REMARK  175  A    between atoms: _449  and  _450
REMARK  176  A    between atoms: _450  and  _451
REMARK  177  A    between atoms: _454  and  _456
REMARK  178  A    between atoms: _456  and  _457
REMARK  179  A    between atoms: _456  and  _459
REMARK  180  A    between atoms: _459  and  _460
REMARK  181  A    between atoms: _460  and  _461
REMARK  182  A    between atoms: _463  and  _465
REMARK  183  A    between atoms: _465  and  _466
REMARK  184  A    between atoms: _465  and  _468
REMARK  185  A    between atoms: _468  and  _469
REMARK  186  A    between atoms: _479  and  _481
REMARK  187  A    between atoms: _481  and  _482
REMARK  188  A    between atoms: _481  and  _484
REMARK  189  A    between atoms: _484  and  _485
REMARK  190  A    between atoms: _495  and  _497
REMARK  191  A    between atoms: _497  and  _498
REMARK  192  A    between atoms: _497  and  _500
REMARK  193  A    between atoms: _500  and  _501
REMARK  194  A    between atoms: _506  and  _508
REMARK  195  A    between atoms: _508  and  _509
REMARK  196  A    between atoms: _508  and  _511
REMARK  197  A    between atoms: _511  and  _512
REMARK  198  A    between atoms: _515  and  _517
REMARK  199  A    between atoms: _517  and  _518
REMARK  200  A    between atoms: _521  and  _523
REMARK  201  A    between atoms: _523  and  _524
REMARK  202  A    between atoms: _523  and  _526
REMARK  203  A    between atoms: _526  and  _527
REMARK  204  A    between atoms: _532  and  _533
REMARK  205  A    between atoms: _535  and  _537
REMARK  206  A    between atoms: _537  and  _538
REMARK  207  A    between atoms: _537  and  _540
REMARK  208  A    between atoms: _540  and  _541
REMARK  209  A    between atoms: _551  and  _553
REMARK  210  A    between atoms: _553  and  _554
REMARK  211  A    between atoms: _553  and  _556
REMARK  212  A    between atoms: _556  and  _557
REMARK  213  A    between atoms: _562  and  _564
REMARK  214  A    between atoms: _564  and  _565
REMARK  215  A    between atoms: _567  and  _569
REMARK  216  A    between atoms: _569  and  _570
REMARK  217  A    between atoms: _569  and  _572
REMARK  218  A    between atoms: _575  and  _577
REMARK  219  A    between atoms: _577  and  _578
REMARK  220  A    between atoms: _577  and  _580
REMARK  221  A    between atoms: _580  and  _581
REMARK  222  A    between atoms: _587  and  _589
REMARK  223  A    between atoms: _589  and  _590
REMARK  224  A    between atoms: _592  and  _594
REMARK  225  A    between atoms: _594  and  _595
REMARK  226  A    between atoms: _597  and  _599
REMARK  227  A    between atoms: _599  and  _600
REMARK  228  A    between atoms: _599  and  _602
REMARK  229  A    between atoms: _602  and  _603
REMARK  230  A    between atoms: _606  and  _608
REMARK  231  A    between atoms: _608  and  _609
REMARK  232  A    between atoms: _608  and  _611
REMARK  233  A    between atoms: _611  and  _612
REMARK  234  A    between atoms: _615  and  _617
REMARK  235  A    between atoms: _617  and  _618
REMARK  236  A    between atoms: _617  and  _620
REMARK  237  A    between atoms: _620  and  _621
REMARK  238  A    between atoms: _624  and  _626
REMARK  239  A    between atoms: _626  and  _627
REMARK  240  A    between atoms: _626  and  _629
REMARK  241  A    between atoms: _629  and  _630
REMARK  242  A    between atoms: _630  and  _631
REMARK                            x       y       z     vdW  Elec       q    Type
REMARK                         _______ _______ _______ _____ _____    ______ ____
ROOT
ATOM      1  CA  ASP A   1      -5.322  47.264  84.900  0.00  0.00    +0.144 C 
ENDROOT
BRANCH   1   2
ATOM      2  N   ASP A   1      -6.174  48.189  84.162  0.00  0.00    -0.239 NA
ATOM      3  H   ASP A   1      -7.173  48.295  84.433  0.00  0.00    +0.142 HD
ENDBRANCH   1   2
BRANCH   1   4
ATOM      4  C   ASP A   1      -5.705  45.818  84.652  0.00  0.00    +0.225 C 
ATOM      5  O   ASP A   1      -6.804  45.539  84.184  0.00  0.00    -0.287 OA
ENDBRANCH   1   4
BRANCH   1   6
ATOM      6  CB  ASP A   1      -5.425  47.551  86.401  0.00  0.00    +0.139 C 
BRANCH   6   7
ATOM      7  CG  ASP A   1      -4.818  48.892  86.781  0.00  0.00    +0.367 C 
ATOM      8  OD2 ASP A   1      -3.589  48.940  87.007  0.00  0.00    -0.246 OA
ATOM      9  OD1 ASP A   1      -5.563  49.899  86.838  0.00  0.00    -0.246 OA
ENDBRANCH   6   7
ENDBRANCH   1   6
TORSDOF 4
REMARK  Name = ../refined-set-2016/1k1y/1k1y_pocket.pdb
REMARK  242 active torsions:
REMARK  status: ('A' for Active; 'I' for Inactive)
REMARK    1  A    between atoms: _1  and  _3
REMARK    2  A    between atoms: _3  and  _4
REMARK    3  A    between atoms: _3  and  _6
REMARK    4  A    between atoms: _6  and  _7
REMARK    5  A    between atoms: _12  and  _14
REMARK    6  A    between atoms: _14  and  _15
REMARK    7  A    between atoms: _14  and  _17
REMARK    8  A    between atoms: _17  and  _18
REMARK    9  A    between atoms: _23  and  _25
REMARK   10  A    between atoms: _25  and  _26
REMARK   11  A    between atoms: _25  and  _28
REMARK   12  A    between atoms: _28  and  _29
REMARK   13  A    between atoms: _34  and  _36
REMARK   14  A    between atoms: _36  and  _37
REMARK   15  A    between atoms: _36  and  _39
REMARK   16  A    between atoms: _39  and  _40
REMARK   17  A    between atoms: _40  and  _41
REMARK   18  A    between atoms: _47  and  _48
REMARK   19  A    between atoms: _53  and  _55
REMARK   20  A    between atoms: _55  and  _56
REMARK   21  A    between atoms: _55  and  _58
REMARK   22  A    between atoms: _58  and  _59
REMARK   23  A    between atoms: _64  and  _66
REMARK   24  A    between atoms: _66  and  _67
REMARK   25  A    between atoms: _66  and  _69
REMARK   26  A    between atoms: _69  and  _70
REMARK   27  A    between atoms: _75  and  _76
REMARK   28  A    between atoms: _78  and  _80
REMARK   29  A    between atoms: _80  and  _81
REMARK   30  A    between atoms: _80  and  _83
REMARK   31  A    between atoms: _83  and  _84
REMARK   32  A    between atoms: _89  and  _91
REMARK   33  A    between atoms: _91  and  _92
REMARK   34  A    between atoms: _91  and  _94
REMARK   35  A    between atoms: _94  and  _95
REMARK   36  A    between atoms: _95  and  _96
REMARK   37  A    between atoms: _99  and  _101
REMARK   38  A    between atoms: _101  and  _102
REMARK   39  A    between atoms: _101  and  _104
REMARK   40  A    between atoms: _104  and  _105
REMARK   41  A    between atoms: _115  and  _117
REMARK   42  A    between atoms: _117  and  _118
REMARK   43  A    between atoms: _117  and  _120
REMARK   44  A    between atoms: _120  and  _121
REMARK   45  A    between atoms: _124  and  _126
REMARK   46  A    between atoms: _126  and  _127
REMARK   47  A    between atoms: _126  and  _129
REMARK   48  A    between atoms: _129  and  _130
REMARK   49  A    between atoms: _133  and  _135
REMARK   50  A    between atoms: _135  and  _136
REMARK   51  A    between atoms: _135  and  _138
REMARK   52  A    between atoms: _138  and  _139
REMARK   53  A    between atoms: _139  and  _140
REMARK   54  A    between atoms: _143  and  _145
REMARK   55  A    between atoms: _145  and  _146
REMARK   56  A    between atoms: _145  and  _148
REMARK   57  A    between atoms: _148  and  _149
REMARK   58  A    between atoms: _149  and  _150
REMARK   59  A    between atoms: _150  and  _151
REMARK   60  A    between atoms: _160  and  _162
REMARK   61  A    between atoms: _162  and  _163
REMARK   62  A    between atoms: _162  and  _165
REMARK   63  A    between atoms: _165  and  _166
REMARK   64  A    between atoms: _169  and  _171
REMARK   65  A    between atoms: _171  and  _172
REMARK   66  A    between atoms: _171  and  _174
REMARK   67  A    between atoms: _174  and  _175
REMARK   68  A    between atoms: _178  and  _180
REMARK   69  A    between atoms: _180  and  _181
REMARK   70  A    between atoms: _180  and  _183
REMARK   71  A    between atoms: _183  and  _184
REMARK   72  A    between atoms: _187  and  _189
REMARK   73  A    between atoms: _189  and  _190
REMARK   74  A    between atoms: _189  and  _192
REMARK   75  A    between atoms: _192  and  _193
REMARK   76  A    between atoms: _193  and  _194
REMARK   77  A    between atoms: _197  and  _199
REMARK   78  A    between atoms: _199  and  _200
REMARK   79  A    between atoms: _199  and  _202
REMARK   80  A    between atoms: _202  and  _203
REMARK   81  A    between atoms: _203  and  _204
REMARK   82  A    between atoms: _204  and  _205
REMARK   83  A    between atoms: _205  and  _206
REMARK   84  A    between atoms: _210  and  _212
REMARK   85  A    between atoms: _212  and  _213
REMARK   86  A    between atoms: _212  and  _215
REMARK   87  A    between atoms: _215  and  _216
REMARK   88  A    between atoms: _219  and  _221
REMARK   89  A    between atoms: _221  and  _222
REMARK   90  A    between atoms: _221  and  _224
REMARK   91  A    between atoms: _224  and  _225
REMARK   92  A    between atoms: _225  and  _226
REMARK   93  A    between atoms: _226  and  _227
REMARK   94  A    between atoms: _236  and  _238
REMARK   95  A    between atoms: _238  and  _239
REMARK   96  A    between atoms: _238  and  _241
REMARK   97  A    between atoms: _241  and  _242
REMARK   98  A    between atoms: _247  and  _248
REMARK   99  A    between atoms: _250  and  _252
REMARK  100  A    between atoms: _252  and  _253
REMARK  101  A    between atoms: _252  and  _255
REMARK  102  A    between atoms: _255  and  _256
REMARK  103  A    between atoms: _259  and  _261
REMARK  104  A    between atoms: _261  and  _262
REMARK  105  A    between atoms: _261  and  _264
REMARK  106  A    between atoms: _264  and  _265
REMARK  107  A    between atoms: _269  and  _270
REMARK  108  A    between atoms: _275  and  _277
REMARK  109  A    between atoms: _277  and  _278
REMARK  110  A    between atoms: _277  and  _280
REMARK  111  A    between atoms: _280  and  _281
REMARK  112  A    between atoms: _287  and  _289
REMARK  113  A    between atoms: _289  and  _290
REMARK  114  A    between atoms: _289  and  _292
REMARK  115  A    between atoms: _292  and  _293
REMARK  116  A    between atoms: _293  and  _294
REMARK  117  A    between atoms: _294  and  _295
REMARK  118  A    between atoms: _304  and  _306
REMARK  119  A    between atoms: _306  and  _307
REMARK  120  A    between atoms: _306  and  _309
REMARK  121  A    between atoms: _309  and  _310
REMARK  122  A    between atoms: _316  and  _318
REMARK  123  A    between atoms: _318  and  _319
REMARK  124  A    between atoms: _318  and  _321
REMARK  125  A    between atoms: _321  and  _322
REMARK  126  A    between atoms: _327  and  _329
REMARK  127  A    between atoms: _329  and  _330
REMARK  128  A    between atoms: _329  and  _332
REMARK  129  A    between atoms: _332  and  _333
REMARK  130  A    between atoms: _336  and  _338
REMARK  131  A    between atoms: _338  and  _339
REMARK  132  A    between atoms: _338  and  _341
REMARK  133  A    between atoms: _341  and  _342
REMARK  134  A    between atoms: _345  and  _347
REMARK  135  A    between atoms: _347  and  _348
REMARK  136  A    between atoms: _350  and  _352
REMARK  137  A    between atoms: _352  and  _353
REMARK  138  A    between atoms: _352  and  _355
REMARK  139  A    between atoms: _355  and  _356
REMARK  140  A    between atoms: _356  and  _357
REMARK  141  A    between atoms: _360  and  _362
REMARK  142  A    between atoms: _362  and  _363
REMARK  143  A    between atoms: _362  and  _365
REMARK  144  A    between atoms: _365  and  _366
REMARK  145  A    between atoms: _366  and  _367
REMARK  146  A    between atoms: _367  and  _368
REMARK  147  A    between atoms: _368  and  _369
REMARK  148  A    between atoms: _373  and  _375
REMARK  149  A    between atoms: _375  and  _376
REMARK  150  A    between atoms: _375  and  _378
REMARK  151  A    between atoms: _378  and  _379
REMARK  152  A    between atoms: _390  and  _391
REMARK  153  A    between atoms: _396  and  _398
REMARK  154  A    between atoms: _398  and  _399
REMARK  155  A    between atoms: _401  and  _403
REMARK  156  A    between atoms: _403  and  _404
REMARK  157  A    between atoms: _403  and  _406
REMARK  158  A    between atoms: _406  and  _407
REMARK  159  A    between atoms: _410  and  _412
REMARK  160  A    between atoms: _412  and  _413
REMARK  161  A    between atoms: _412  and  _415
REMARK  162  A    between atoms: _415  and  _416
REMARK  163  A    between atoms: _418  and  _420
REMARK  164  A    between atoms: _420  and  _421
REMARK  165  A    between atoms: _420  and  _423
REMARK  166  A    between atoms: _423  and  _424
REMARK  167  A    between atoms: _429  and  _430
REMARK  168  A    between atoms: _432  and  _434
REMARK  169  A    between atoms: _434  and  _435
REMARK  170  A    between atoms: _434  and  _437
REMARK  171  A    between atoms: _437  and  _438
REMARK  172  A    between atoms: _444  and  _446
REMARK  173  A    between atoms: _446  and  _447
REMARK  174  A    between atoms: _446  and  _449
REMARK  175  A    between atoms: _449  and  _450
REMARK  176  A    between atoms: _450  and  _451
REMARK  177  A    between atoms: _454  and  _456
REMARK  178  A    between atoms: _456  and  _457
REMARK  179  A    between atoms: _456  and  _459
REMARK  180  A    between atoms: _459  and  _460
REMARK  181  A    between atoms: _460  and  _461
REMARK  182  A    between atoms: _463  and  _465
REMARK  183  A    between atoms: _465  and  _466
REMARK  184  A    between atoms: _465  and  _468
REMARK  185  A    between atoms: _468  and  _469
REMARK  186  A    between atoms: _479  and  _481
REMARK  187  A    between atoms: _481  and  _482
REMARK  188  A    between atoms: _481  and  _484
REMARK  189  A    between atoms: _484  and  _485
REMARK  190  A    between atoms: _495  and  _497
REMARK  191  A    between atoms: _497  and  _498
REMARK  192  A    between atoms: _497  and  _500
REMARK  193  A    between atoms: _500  and  _501
REMARK  194  A    between atoms: _506  and  _508
REMARK  195  A    between atoms: _508  and  _509
REMARK  196  A    between atoms: _508  and  _511
REMARK  197  A    between atoms: _511  and  _512
REMARK  198  A    between atoms: _515  and  _517
REMARK  199  A    between atoms: _517  and  _518
REMARK  200  A    between atoms: _521  and  _523
REMARK  201  A    between atoms: _523  and  _524
REMARK  202  A    between atoms: _523  and  _526
REMARK  203  A    between atoms: _526  and  _527
REMARK  204  A    between atoms: _532  and  _533
REMARK  205  A    between atoms: _535  and  _537
REMARK  206  A    between atoms: _537  and  _538
REMARK  207  A    between atoms: _537  and  _540
REMARK  208  A    between atoms: _540  and  _541
REMARK  209  A    between atoms: _551  and  _553
REMARK  210  A    between atoms: _553  and  _554
REMARK  211  A    between atoms: _553  and  _556
REMARK  212  A    between atoms: _556  and  _557
REMARK  213  A    between atoms: _562  and  _564
REMARK  214  A    between atoms: _564  and  _565
REMARK  215  A    between atoms: _567  and  _569
REMARK  216  A    between atoms: _569  and  _570
REMARK  217  A    between atoms: _569  and  _572
REMARK  218  A    between atoms: _575  and  _577
REMARK  219  A    between atoms: _577  and  _578
REMARK  220  A    between atoms: _577  and  _580
REMARK  221  A    between atoms: _580  and  _581
REMARK  222  A    between atoms: _587  and  _589
REMARK  223  A    between atoms: _589  and  _590
REMARK  224  A    between atoms: _592  and  _594
REMARK  225  A    between atoms: _594  and  _595
REMARK  226  A    between atoms: _597  and  _599
REMARK  227  A    between atoms: _599  and  _600
REMARK  228  A    between atoms: _599  and  _602
REMARK  229  A    between atoms: _602  and  _603
REMARK  230  A    between atoms: _606  and  _608
REMARK  231  A    between atoms: _608  and  _609
REMARK  232  A    between atoms: _608  and  _611
REMARK  233  A    between atoms: _611  and  _612
REMARK  234  A    between atoms: _615  and  _617
REMARK  235  A    between atoms: _617  and  _618
REMARK  236  A    between atoms: _617  and  _620
REMARK  237  A    between atoms: _620  and  _621
REMARK  238  A    between atoms: _624  and  _626
REMARK  239  A    between atoms: _626  and  _627
REMARK  240  A    between atoms: _626  and  _629
REMARK  241  A    between atoms: _629  and  _630
REMARK  242  A    between atoms: _630  and  _631
REMARK                            x       y       z     vdW  Elec       q    Type
REMARK                         _______ _______ _______ _____ _____    ______ ____
ROOT
ATOM      1  C   ARG A   6       5.131  48.013  89.925  0.00  0.00    +0.241 C 
ATOM      2  O   ARG A   6       5.470  49.036  90.523  0.00  0.00    -0.273 OA
ATOM      3  N   TYR A   7       5.456  46.800  90.353  0.00  0.00    -0.297 N 
ATOM      4  H   TYR A   7       5.151  45.962  89.818  0.00  0.00    +0.150 HD
ENDROOT
BRANCH   3   5
ATOM      5  CA  TYR A   7       6.241  46.639  91.574  0.00  0.00    +0.153 C 
BRANCH   5   6
ATOM      6  C   TYR A   7       7.702  46.294  91.292  0.00  0.00    +0.241 C 
ATOM      7  O   TYR A   7       8.572  46.516  92.129  0.00  0.00    -0.273 OA
ATOM      8  N   LEU A   8       7.964  45.757  90.107  0.00  0.00    -0.297 N 
ATOM      9  H   LEU A   8       7.177  45.576  89.452  0.00  0.00    +0.150 HD
BRANCH   8  10
ATOM     10  CA  LEU A   8       9.323  45.411  89.691  0.00  0.00    +0.149 C 
BRANCH  10  11
ATOM     11  C   LEU A   8      10.037  46.679  89.203  0.00  0.00    +0.241 C 
ATOM     12  O   LEU A   8      11.229  46.876  89.440  0.00  0.00    -0.273 OA
ATOM     13  N   ILE A   9       9.272  47.529  88.525  0.00  0.00    -0.297 N 
ATOM     14  H   ILE A   9       8.264  47.297  88.413  0.00  0.00    +0.150 HD
BRANCH  13  15
ATOM     15  CA  ILE A   9       9.760  48.763  87.931  0.00  0.00    +0.149 C 
BRANCH  15  16
ATOM     16  C   ILE A   9       9.365  50.006  88.713  0.00  0.00    +0.244 C 
ATOM     17  N   PRO A  10      10.356  50.780  89.169  0.00  0.00    -0.272 N 
ATOM     18  CD  PRO A  10      10.115  52.190  89.543  0.00  0.00    +0.094 C 
ATOM     19  CG  PRO A  10      11.520  52.806  89.482  0.00  0.00    +0.024 C 
ATOM     20  CB  PRO A  10      12.279  51.894  88.519  0.00  0.00    +0.031 C 
ATOM     21  CA  PRO A  10      11.789  50.539  88.976  0.00  0.00    +0.152 C 
ATOM     22  O   ILE A   9       8.177  50.288  88.896  0.00  0.00    -0.273 OA
BRANCH  21  23
ATOM     23  C   PRO A  10      12.451  50.131  90.288  0.00  0.00    +0.241 C 
ATOM     24  N   PHE A  11      11.625  49.803  91.273  0.00  0.00    -0.297 N 
ATOM     25  H   PHE A  11      10.603  49.799  91.082  0.00  0.00    +0.150 HD
ATOM     26  O   PRO A  10      13.677  50.118  90.401  0.00  0.00    -0.273 OA
BRANCH  24  27
ATOM     27  CA  PHE A  11      12.084  49.449  92.608  0.00  0.00    +0.153 C 
BRANCH  27  28
ATOM     28  C   PHE A  11      12.981  48.214  92.761  0.00  0.00    +0.241 C 
ATOM     29  O   PHE A  11      13.866  48.202  93.616  0.00  0.00    -0.273 OA
ATOM     30  N   ARG A  12      12.764  47.179  91.959  0.00  0.00    -0.298 N 
ATOM     31  H   ARG A  12      12.000  47.218  91.254  0.00  0.00    +0.150 HD
BRANCH  30  32
ATOM     32  CA  ARG A  12      13.597  45.989  92.067  0.00  0.00    +0.137 C 
BRANCH  32  33
ATOM     33  C   ARG A  12      14.725  46.078  91.046  0.00  0.00    +0.227 C 
ATOM     34  O   ARG A  12      14.635  46.836  90.081  0.00  0.00    -0.286 OA
ENDBRANCH  32  33
BRANCH  32  35
ATOM     35  CB  ARG A  12      12.771  44.723  91.819  0.00  0.00    +0.031 C 
BRANCH  35  36
ATOM     36  CG  ARG A  12      11.468  44.668  92.597  0.00  0.00    +0.045 C 
BRANCH  36  37
ATOM     37  CD  ARG A  12      11.686  44.957  94.064  0.00  0.00    +0.174 C 
BRANCH  37  38
ATOM     38  NE  ARG A  12      12.576  43.980  94.670  0.00  0.00    -0.265 N 
ATOM     39  CZ  ARG A  12      13.161  44.139  95.851  0.00  0.00    +0.342 C 
ATOM     40  NH2 ARG A  12      12.948  45.239  96.556  0.00  0.00    -0.292 N 
ATOM     41 HH21 ARG A  12      13.408  45.361  97.481  0.00  0.00    +0.255 HD
ATOM     42 HH22 ARG A  12      12.321  45.981  96.185  0.00  0.00    +0.255 HD
ATOM     43  NH1 ARG A  12      13.966  43.199  96.321  0.00  0.00    -0.292 N 
ATOM     44 HH11 ARG A  12      14.425  43.322  97.246  0.00  0.00    +0.255 HD
ATOM     45 HH12 ARG A  12      14.139  42.337  95.765  0.00  0.00    +0.255 HD
ATOM     46  HE  ARG A  12      12.766  43.102  94.146  0.00  0.00    +0.259 HD
ENDBRANCH  37  38
ENDBRANCH  36  37
ENDBRANCH  35  36
ENDBRANCH  32  35
ENDBRANCH  30  32
ENDBRANCH  27  28
BRANCH  27  47
ATOM     47  CB  PHE A  11      10.866  49.330  93.522  0.00  0.00    +0.055 C 
BRANCH  47  48
ATOM     48  CG  PHE A  11       9.974  50.548  93.502  0.00  0.00    -0.020 A 
ATOM     49  CD2 PHE A  11      10.462  51.791  93.888  0.00  0.00    -0.004 A 
ATOM     50  CE2 PHE A  11       9.640  52.922  93.877  0.00  0.00    -0.000 A 
ATOM     51  CZ  PHE A  11       8.315  52.813  93.478  0.00  0.00    -0.000 A 
ATOM     52  CE1 PHE A  11       7.811  51.570  93.086  0.00  0.00    -0.000 A 
ATOM     53  CD1 PHE A  11       8.641  50.449  93.100  0.00  0.00    -0.004 A 
ENDBRANCH  47  48
ENDBRANCH  27  47
ENDBRANCH  24  27
ENDBRANCH  21  23
ENDBRANCH  15  16
BRANCH  15  54
ATOM     54  CB  ILE A   9       9.225  48.889  86.483  0.00  0.00    +0.027 C 
ATOM     55  CG2 ILE A   9       9.666  50.223  85.861  0.00  0.00    +0.002 C 
BRANCH  54  56
ATOM     56  CG1 ILE A   9       9.699  47.676  85.670  0.00  0.00    +0.002 C 
ATOM     57  CD1 ILE A   9       9.224  47.657  84.222  0.00  0.00    +0.000 C 
ENDBRANCH  54  56
ENDBRANCH  15  54
ENDBRANCH  13  15
ENDBRANCH  10  11
BRANCH  10  58
ATOM     58  CB  LEU A   8       9.276  44.404  88.535  0.00  0.00    +0.029 C 
BRANCH  58  59
ATOM     59  CG  LEU A   8       8.910  42.943  88.817  0.00  0.00    +0.002 C 
ATOM     60  CD2 LEU A   8      10.099  42.230  89.431  0.00  0.00    +0.000 C 
ATOM     61  CD1 LEU A   8       8.477  42.257  87.529  0.00  0.00    +0.000 C 
ENDBRANCH  58  59
ENDBRANCH  10  58
ENDBRANCH   8  10
ENDBRANCH   5   6
BRANCH   5  62
ATOM     62  CB  TYR A   7       5.600  45.590  92.491  0.00  0.00    +0.055 C 
BRANCH  62  63
ATOM     63  CG  TYR A   7       4.407  46.125  93.269  0.00  0.00    -0.020 A 
ATOM     64  CD2 TYR A   7       4.550  46.541  94.597  0.00  0.00    -0.001 A 
ATOM     65  CE2 TYR A   7       3.468  47.061  95.315  0.00  0.00    +0.036 A 
ATOM     66  CZ  TYR A   7       2.231  47.168  94.705  0.00  0.00    +0.134 A 
ATOM     67  CE1 TYR A   7       2.061  46.758  93.387  0.00  0.00    +0.036 A 
ATOM     68  CD1 TYR A   7       3.144  46.243  92.677  0.00  0.00    -0.001 A 
BRANCH  66  69
ATOM     69  OH  TYR A   7       1.179  47.711  95.411  0.00  0.00    -0.506 OA
ATOM     70  HH  TYR A   7       0.369  47.718  94.841  0.00  0.00    +0.292 HD
ENDBRANCH  66  69
ENDBRANCH  62  63
ENDBRANCH   5  62
ENDBRANCH   3   5
BRANCH   1  71
ATOM     71  CA  ARG A   6       4.310  48.099  88.645  0.00  0.00    +0.149 C 
BRANCH  71  73
ATOM     72  C   LEU A   5       5.602  46.539  87.315  0.00  0.00    +0.241 C 
ATOM     73  N   ARG A   6       4.432  46.869  87.866  0.00  0.00    -0.297 N 
ATOM     74  H   ARG A   6       3.606  46.250  87.741  0.00  0.00    +0.150 HD
ATOM     75  O   LEU A   5       6.605  47.233  87.445  0.00  0.00    -0.273 OA
BRANCH  72  76
ATOM     76  CA  LEU A   5       5.672  45.232  86.521  0.00  0.00    +0.149 C 
BRANCH  76  79
ATOM     77  C   LYS A   4       4.863  43.829  88.297  0.00  0.00    +0.241 C 
ATOM     78  O   LYS A   4       5.787  44.175  89.038  0.00  0.00    -0.273 OA
ATOM     79  N   LEU A   5       4.726  44.276  87.057  0.00  0.00    -0.297 N 
ATOM     80  H   LEU A   5       3.938  43.940  86.468  0.00  0.00    +0.150 HD
BRANCH  77  81
ATOM     81  CA  LYS A   4       3.807  42.849  88.775  0.00  0.00    +0.149 C 
BRANCH  81  84
ATOM     82  C   GLU A   3       1.954  44.441  88.824  0.00  0.00    +0.241 C 
ATOM     83  O   GLU A   3       2.575  45.239  89.538  0.00  0.00    -0.273 OA
ATOM     84  N   LYS A   4       2.462  43.281  88.415  0.00  0.00    -0.297 N 
ATOM     85  H   LYS A   4       1.879  42.661  87.818  0.00  0.00    +0.150 HD
BRANCH  82  86
ATOM     86  CA  GLU A   3       0.523  44.746  88.381  0.00  0.00    +0.149 C 
BRANCH  86  88
ATOM     87  C   ASP A   2       0.985  44.579  86.007  0.00  0.00    +0.241 C 
ATOM     88  N   GLU A   3       0.197  44.290  87.034  0.00  0.00    -0.297 N 
ATOM     89  H   GLU A   3      -0.665  43.730  86.877  0.00  0.00    +0.150 HD
ATOM     90  O   ASP A   2       2.026  45.222  86.134  0.00  0.00    -0.273 OA
BRANCH  87  91
ATOM     91  CA  ASP A   2       0.545  44.076  84.627  0.00  0.00    +0.160 C 
BRANCH  91  94
ATOM     92  C   ILE A   1      -1.062  45.827  84.053  0.00  0.00    +0.238 C 
ATOM     93  O   ILE A   1      -1.884  45.406  84.859  0.00  0.00    -0.274 OA
ATOM     94  N   ASP A   2       0.114  45.242  83.852  0.00  0.00    -0.297 N 
ATOM     95  H   ASP A   2       0.748  45.624  83.122  0.00  0.00    +0.150 HD
BRANCH  92  96
ATOM     96  CA  ILE A   1      -1.373  47.051  83.195  0.00  0.00    +0.145 C 
BRANCH  96  97
ATOM     97  N   ILE A   1      -2.680  46.814  82.582  0.00  0.00    -0.238 NA
ATOM     98  H   ILE A   1      -3.520  47.296  82.961  0.00  0.00    +0.142 HD
ENDBRANCH  96  97
BRANCH  96  99
ATOM     99  CB  ILE A   1      -1.384  48.321  84.100  0.00  0.00    +0.025 C 
ATOM    100  CG2 ILE A   1      -0.113  48.399  84.942  0.00  0.00    +0.002 C 
BRANCH  99 101
ATOM    101  CG1 ILE A   1      -1.504  49.579  83.232  0.00  0.00    +0.002 C 
ATOM    102  CD1 ILE A   1      -1.745  50.842  84.032  0.00  0.00    +0.000 C 
ENDBRANCH  99 101
ENDBRANCH  96  99
ENDBRANCH  92  96
ENDBRANCH  91  94
BRANCH  91 103
ATOM    103  CB  ASP A   2       1.730  43.409  83.930  0.00  0.00    +0.143 C 
BRANCH 103 104
ATOM    104  CG  ASP A   2       2.139  42.106  84.588  0.00  0.00    +0.367 C 
ATOM    105  OD2 ASP A   2       1.980  41.983  85.814  0.00  0.00    -0.246 OA
ATOM    106  OD1 ASP A   2       2.630  41.205  83.880  0.00  0.00    -0.246 OA
ENDBRANCH 103 104
ENDBRANCH  91 103
ENDBRANCH  87  91
ENDBRANCH  86  88
BRANCH  86 107
ATOM    107  CB  GLU A   3      -0.436  44.142  89.402  0.00  0.00    +0.041 C 
BRANCH 107 108
ATOM    108  CG  GLU A   3      -0.302  44.787  90.762  0.00  0.00    +0.116 C 
BRANCH 108 109
ATOM    109  CD  GLU A   3      -1.059  44.057  91.847  0.00  0.00    +0.365 C 
ATOM    110  OE2 GLU A   3      -0.541  43.046  92.358  0.00  0.00    -0.246 OA
ATOM    111  OE1 GLU A   3      -2.179  44.491  92.190  0.00  0.00    -0.246 OA
ENDBRANCH 108 109
ENDBRANCH 107 108
ENDBRANCH  86 107
ENDBRANCH  82  86
ENDBRANCH  81  84
BRANCH  81 112
ATOM    112  CB  LYS A   4       4.082  41.457  88.209  0.00  0.00    +0.029 C 
BRANCH 112 113
ATOM    113  CG  LYS A   4       3.222  40.389  88.852  0.00  0.00    +0.000 C 
BRANCH 113 114
ATOM    114  CD  LYS A   4       3.455  39.018  88.248  0.00  0.00    -0.024 C 
BRANCH 114 115
ATOM    115  CE  LYS A   4       2.528  37.990  88.880  0.00  0.00    -0.086 C 
BRANCH 115 116
ATOM    116  NZ  LYS A   4       2.748  36.631  88.322  0.00  0.00    +0.380 N 
ATOM    117  HZ1 LYS A   4       2.097  35.961  88.779  0.00  0.00    -0.089 HD
ATOM    118  HZ2 LYS A   4       3.730  36.339  88.501  0.00  0.00    -0.089 HD
ATOM    119  HZ3 LYS A   4       2.570  36.645  87.297  0.00  0.00    -0.089 HD
ENDBRANCH 115 116
ENDBRANCH 114 115
ENDBRANCH 113 114
ENDBRANCH 112 113
ENDBRANCH  81 112
ENDBRANCH  77  81
ENDBRANCH  76  79
BRANCH  76 120
ATOM    120  CB  LEU A   5       5.390  45.471  85.038  0.00  0.00    +0.029 C 
BRANCH 120 121
ATOM    121  CG  LEU A   5       5.668  44.218  84.205  0.00  0.00    +0.002 C 
ATOM    122  CD2 LEU A   5       7.141  43.850  84.327  0.00  0.00    +0.000 C 
ATOM    123  CD1 LEU A   5       5.284  44.439  82.744  0.00  0.00    +0.000 C 
ENDBRANCH 120 121
ENDBRANCH  76 120
ENDBRANCH  72  76
ENDBRANCH  71  73
BRANCH  71 124
ATOM    124  CB  ARG A   6       2.846  48.411  89.002  0.00  0.00    +0.033 C 
BRANCH 124 125
ATOM    125  CG  ARG A   6       2.021  48.960  87.854  0.00  0.00    +0.045 C 
BRANCH 125 126
ATOM    126  CD  ARG A   6       0.739  49.660  88.327  0.00  0.00    +0.174 C 
BRANCH 126 127
ATOM    127  NE  ARG A   6      -0.286  48.746  88.849  0.00  0.00    -0.265 N 
ATOM    128  CZ  ARG A   6      -0.684  48.709  90.119  0.00  0.00    +0.342 C 
ATOM    129  NH2 ARG A   6      -0.141  49.531  91.010  0.00  0.00    -0.292 N 
ATOM    130 HH21 ARG A   6      -0.452  49.502  92.002  0.00  0.00    +0.255 HD
ATOM    131 HH22 ARG A   6       0.595  50.204  90.716  0.00  0.00    +0.255 HD
ATOM    132  NH1 ARG A   6      -1.642  47.862  90.497  0.00  0.00    -0.292 N 
ATOM    133 HH11 ARG A   6      -1.951  47.836  91.490  0.00  0.00    +0.255 HD
ATOM    134 HH12 ARG A   6      -2.081  47.228  89.799  0.00  0.00    +0.255 HD
ATOM    135  HE  ARG A   6      -0.730  48.084  88.182  0.00  0.00    +0.259 HD
ENDBRANCH 126 127
ENDBRANCH 125 126
ENDBRANCH 124 125
ENDBRANCH  71 124
ENDBRANCH   1  71
TORSDOF 54
REMARK  Name = ../refined-set-2016/1k1y/1k1y_pocket.pdb
REMARK  242 active torsions:
REMARK  status: ('A' for Active; 'I' for Inactive)
REMARK    1  A    between atoms: _1  and  _3
REMARK    2  A    between atoms: _3  and  _4
REMARK    3  A    between atoms: _3  and  _6
REMARK    4  A    between atoms: _6  and  _7
REMARK    5  A    between atoms: _12  and  _14
REMARK    6  A    between atoms: _14  and  _15
REMARK    7  A    between atoms: _14  and  _17
REMARK    8  A    between atoms: _17  and  _18
REMARK    9  A    between atoms: _23  and  _25
REMARK   10  A    between atoms: _25  and  _26
REMARK   11  A    between atoms: _25  and  _28
REMARK   12  A    between atoms: _28  and  _29
REMARK   13  A    between atoms: _34  and  _36
REMARK   14  A    between atoms: _36  and  _37
REMARK   15  A    between atoms: _36  and  _39
REMARK   16  A    between atoms: _39  and  _40
REMARK   17  A    between atoms: _40  and  _41
REMARK   18  A    between atoms: _47  and  _48
REMARK   19  A    between atoms: _53  and  _55
REMARK   20  A    between atoms: _55  and  _56
REMARK   21  A    between atoms: _55  and  _58
REMARK   22  A    between atoms: _58  and  _59
REMARK   23  A    between atoms: _64  and  _66
REMARK   24  A    between atoms: _66  and  _67
REMARK   25  A    between atoms: _66  and  _69
REMARK   26  A    between atoms: _69  and  _70
REMARK   27  A    between atoms: _75  and  _76
REMARK   28  A    between atoms: _78  and  _80
REMARK   29  A    between atoms: _80  and  _81
REMARK   30  A    between atoms: _80  and  _83
REMARK   31  A    between atoms: _83  and  _84
REMARK   32  A    between atoms: _89  and  _91
REMARK   33  A    between atoms: _91  and  _92
REMARK   34  A    between atoms: _91  and  _94
REMARK   35  A    between atoms: _94  and  _95
REMARK   36  A    between atoms: _95  and  _96
REMARK   37  A    between atoms: _99  and  _101
REMARK   38  A    between atoms: _101  and  _102
REMARK   39  A    between atoms: _101  and  _104
REMARK   40  A    between atoms: _104  and  _105
REMARK   41  A    between atoms: _115  and  _117
REMARK   42  A    between atoms: _117  and  _118
REMARK   43  A    between atoms: _117  and  _120
REMARK   44  A    between atoms: _120  and  _121
REMARK   45  A    between atoms: _124  and  _126
REMARK   46  A    between atoms: _126  and  _127
REMARK   47  A    between atoms: _126  and  _129
REMARK   48  A    between atoms: _129  and  _130
REMARK   49  A    between atoms: _133  and  _135
REMARK   50  A    between atoms: _135  and  _136
REMARK   51  A    between atoms: _135  and  _138
REMARK   52  A    between atoms: _138  and  _139
REMARK   53  A    between atoms: _139  and  _140
REMARK   54  A    between atoms: _143  and  _145
REMARK   55  A    between atoms: _145  and  _146
REMARK   56  A    between atoms: _145  and  _148
REMARK   57  A    between atoms: _148  and  _149
REMARK   58  A    between atoms: _149  and  _150
REMARK   59  A    between atoms: _150  and  _151
REMARK   60  A    between atoms: _160  and  _162
REMARK   61  A    between atoms: _162  and  _163
REMARK   62  A    between atoms: _162  and  _165
REMARK   63  A    between atoms: _165  and  _166
REMARK   64  A    between atoms: _169  and  _171
REMARK   65  A    between atoms: _171  and  _172
REMARK   66  A    between atoms: _171  and  _174
REMARK   67  A    between atoms: _174  and  _175
REMARK   68  A    between atoms: _178  and  _180
REMARK   69  A    between atoms: _180  and  _181
REMARK   70  A    between atoms: _180  and  _183
REMARK   71  A    between atoms: _183  and  _184
REMARK   72  A    between atoms: _187  and  _189
REMARK   73  A    between atoms: _189  and  _190
REMARK   74  A    between atoms: _189  and  _192
REMARK   75  A    between atoms: _192  and  _193
REMARK   76  A    between atoms: _193  and  _194
REMARK   77  A    between atoms: _197  and  _199
REMARK   78  A    between atoms: _199  and  _200
REMARK   79  A    between atoms: _199  and  _202
REMARK   80  A    between atoms: _202  and  _203
REMARK   81  A    between atoms: _203  and  _204
REMARK   82  A    between atoms: _204  and  _205
REMARK   83  A    between atoms: _205  and  _206
REMARK   84  A    between atoms: _210  and  _212
REMARK   85  A    between atoms: _212  and  _213
REMARK   86  A    between atoms: _212  and  _215
REMARK   87  A    between atoms: _215  and  _216
REMARK   88  A    between atoms: _219  and  _221
REMARK   89  A    between atoms: _221  and  _222
REMARK   90  A    between atoms: _221  and  _224
REMARK   91  A    between atoms: _224  and  _225
REMARK   92  A    between atoms: _225  and  _226
REMARK   93  A    between atoms: _226  and  _227
REMARK   94  A    between atoms: _236  and  _238
REMARK   95  A    between atoms: _238  and  _239
REMARK   96  A    between atoms: _238  and  _241
REMARK   97  A    between atoms: _241  and  _242
REMARK   98  A    between atoms: _247  and  _248
REMARK   99  A    between atoms: _250  and  _252
REMARK  100  A    between atoms: _252  and  _253
REMARK  101  A    between atoms: _252  and  _255
REMARK  102  A    between atoms: _255  and  _256
REMARK  103  A    between atoms: _259  and  _261
REMARK  104  A    between atoms: _261  and  _262
REMARK  105  A    between atoms: _261  and  _264
REMARK  106  A    between atoms: _264  and  _265
REMARK  107  A    between atoms: _269  and  _270
REMARK  108  A    between atoms: _275  and  _277
REMARK  109  A    between atoms: _277  and  _278
REMARK  110  A    between atoms: _277  and  _280
REMARK  111  A    between atoms: _280  and  _281
REMARK  112  A    between atoms: _287  and  _289
REMARK  113  A    between atoms: _289  and  _290
REMARK  114  A    between atoms: _289  and  _292
REMARK  115  A    between atoms: _292  and  _293
REMARK  116  A    between atoms: _293  and  _294
REMARK  117  A    between atoms: _294  and  _295
REMARK  118  A    between atoms: _304  and  _306
REMARK  119  A    between atoms: _306  and  _307
REMARK  120  A    between atoms: _306  and  _309
REMARK  121  A    between atoms: _309  and  _310
REMARK  122  A    between atoms: _316  and  _318
REMARK  123  A    between atoms: _318  and  _319
REMARK  124  A    between atoms: _318  and  _321
REMARK  125  A    between atoms: _321  and  _322
REMARK  126  A    between atoms: _327  and  _329
REMARK  127  A    between atoms: _329  and  _330
REMARK  128  A    between atoms: _329  and  _332
REMARK  129  A    between atoms: _332  and  _333
REMARK  130  A    between atoms: _336  and  _338
REMARK  131  A    between atoms: _338  and  _339
REMARK  132  A    between atoms: _338  and  _341
REMARK  133  A    between atoms: _341  and  _342
REMARK  134  A    between atoms: _345  and  _347
REMARK  135  A    between atoms: _347  and  _348
REMARK  136  A    between atoms: _350  and  _352
REMARK  137  A    between atoms: _352  and  _353
REMARK  138  A    between atoms: _352  and  _355
REMARK  139  A    between atoms: _355  and  _356
REMARK  140  A    between atoms: _356  and  _357
REMARK  141  A    between atoms: _360  and  _362
REMARK  142  A    between atoms: _362  and  _363
REMARK  143  A    between atoms: _362  and  _365
REMARK  144  A    between atoms: _365  and  _366
REMARK  145  A    between atoms: _366  and  _367
REMARK  146  A    between atoms: _367  and  _368
REMARK  147  A    between atoms: _368  and  _369
REMARK  148  A    between atoms: _373  and  _375
REMARK  149  A    between atoms: _375  and  _376
REMARK  150  A    between atoms: _375  and  _378
REMARK  151  A    between atoms: _378  and  _379
REMARK  152  A    between atoms: _390  and  _391
REMARK  153  A    between atoms: _396  and  _398
REMARK  154  A    between atoms: _398  and  _399
REMARK  155  A    between atoms: _401  and  _403
REMARK  156  A    between atoms: _403  and  _404
REMARK  157  A    between atoms: _403  and  _406
REMARK  158  A    between atoms: _406  and  _407
REMARK  159  A    between atoms: _410  and  _412
REMARK  160  A    between atoms: _412  and  _413
REMARK  161  A    between atoms: _412  and  _415
REMARK  162  A    between atoms: _415  and  _416
REMARK  163  A    between atoms: _418  and  _420
REMARK  164  A    between atoms: _420  and  _421
REMARK  165  A    between atoms: _420  and  _423
REMARK  166  A    between atoms: _423  and  _424
REMARK  167  A    between atoms: _429  and  _430
REMARK  168  A    between atoms: _432  and  _434
REMARK  169  A    between atoms: _434  and  _435
REMARK  170  A    between atoms: _434  and  _437
REMARK  171  A    between atoms: _437  and  _438
REMARK  172  A    between atoms: _444  and  _446
REMARK  173  A    between atoms: _446  and  _447
REMARK  174  A    between atoms: _446  and  _449
REMARK  175  A    between atoms: _449  and  _450
REMARK  176  A    between atoms: _450  and  _451
REMARK  177  A    between atoms: _454  and  _456
REMARK  178  A    between atoms: _456  and  _457
REMARK  179  A    between atoms: _456  and  _459
REMARK  180  A    between atoms: _459  and  _460
REMARK  181  A    between atoms: _460  and  _461
REMARK  182  A    between atoms: _463  and  _465
REMARK  183  A    between atoms: _465  and  _466
REMARK  184  A    between atoms: _465  and  _468
REMARK  185  A    between atoms: _468  and  _469
REMARK  186  A    between atoms: _479  and  _481
REMARK  187  A    between atoms: _481  and  _482
REMARK  188  A    between atoms: _481  and  _484
REMARK  189  A    between atoms: _484  and  _485
REMARK  190  A    between atoms: _495  and  _497
REMARK  191  A    between atoms: _497  and  _498
REMARK  192  A    between atoms: _497  and  _500
REMARK  193  A    between atoms: _500  and  _501
REMARK  194  A    between atoms: _506  and  _508
REMARK  195  A    between atoms: _508  and  _509
REMARK  196  A    between atoms: _508  and  _511
REMARK  197  A    between atoms: _511  and  _512
REMARK  198  A    between atoms: _515  and  _517
REMARK  199  A    between atoms: _517  and  _518
REMARK  200  A    between atoms: _521  and  _523
REMARK  201  A    between atoms: _523  and  _524
REMARK  202  A    between atoms: _523  and  _526
REMARK  203  A    between atoms: _526  and  _527
REMARK  204  A    between atoms: _532  and  _533
REMARK  205  A    between atoms: _535  and  _537
REMARK  206  A    between atoms: _537  and  _538
REMARK  207  A    between atoms: _537  and  _540
REMARK  208  A    between atoms: _540  and  _541
REMARK  209  A    between atoms: _551  and  _553
REMARK  210  A    between atoms: _553  and  _554
REMARK  211  A    between atoms: _553  and  _556
REMARK  212  A    between atoms: _556  and  _557
REMARK  213  A    between atoms: _562  and  _564
REMARK  214  A    between atoms: _564  and  _565
REMARK  215  A    between atoms: _567  and  _569
REMARK  216  A    between atoms: _569  and  _570
REMARK  217  A    between atoms: _569  and  _572
REMARK  218  A    between atoms: _575  and  _577
REMARK  219  A    between atoms: _577  and  _578
REMARK  220  A    between atoms: _577  and  _580
REMARK  221  A    between atoms: _580  and  _581
REMARK  222  A    between atoms: _587  and  _589
REMARK  223  A    between atoms: _589  and  _590
REMARK  224  A    between atoms: _592  and  _594
REMARK  225  A    between atoms: _594  and  _595
REMARK  226  A    between atoms: _597  and  _599
REMARK  227  A    between atoms: _599  and  _600
REMARK  228  A    between atoms: _599  and  _602
REMARK  229  A    between atoms: _602  and  _603
REMARK  230  A    between atoms: _606  and  _608
REMARK  231  A    between atoms: _608  and  _609
REMARK  232  A    between atoms: _608  and  _611
REMARK  233  A    between atoms: _611  and  _612
REMARK  234  A    between atoms: _615  and  _617
REMARK  235  A    between atoms: _617  and  _618
REMARK  236  A    between atoms: _617  and  _620
REMARK  237  A    between atoms: _620  and  _621
REMARK  238  A    between atoms: _624  and  _626
REMARK  239  A    between atoms: _626  and  _627
REMARK  240  A    between atoms: _626  and  _629
REMARK  241  A    between atoms: _629  and  _630
REMARK  242  A    between atoms: _630  and  _631
REMARK                            x       y       z     vdW  Elec       q    Type
REMARK                         _______ _______ _______ _____ _____    ______ ____
ROOT
ATOM      1  CA  ASP A   4       3.424  57.265  87.617  0.00  0.00    +0.160 C 
ENDROOT
BRANCH   1   3
ATOM      2  C   ASP A   3       3.125  55.354  86.121  0.00  0.00    +0.241 C 
ATOM      3  N   ASP A   4       3.038  55.889  87.335  0.00  0.00    -0.297 N 
ATOM      4  H   ASP A   4       2.680  55.301  88.115  0.00  0.00    +0.150 HD
ATOM      5  O   ASP A   3       3.557  55.963  85.149  0.00  0.00    -0.273 OA
BRANCH   2   6
ATOM      6  CA  ASP A   3       2.662  53.905  85.987  0.00  0.00    +0.160 C 
BRANCH   6   9
ATOM      7  C   HIS A   2       2.108  52.437  84.152  0.00  0.00    +0.241 C 
ATOM      8  O   HIS A   2       1.220  51.887  84.801  0.00  0.00    -0.273 OA
ATOM      9  N   ASP A   3       2.857  53.420  84.633  0.00  0.00    -0.297 N 
ATOM     10  H   ASP A   3       3.592  53.848  84.034  0.00  0.00    +0.150 HD
BRANCH   7  11
ATOM     11  CA  HIS A   2       2.436  51.987  82.748  0.00  0.00    +0.155 C 
BRANCH  11  13
ATOM     12  C   PHE A   1       3.551  49.985  81.966  0.00  0.00    +0.239 C 
ATOM     13  N   HIS A   2       2.825  50.593  82.890  0.00  0.00    -0.297 N 
ATOM     14  H   HIS A   2       2.527  50.064  83.734  0.00  0.00    +0.150 HD
ATOM     15  O   PHE A   1       3.884  50.530  80.914  0.00  0.00    -0.274 OA
BRANCH  12  16
ATOM     16  CA  PHE A   1       3.947  48.544  82.251  0.00  0.00    +0.149 C 
BRANCH  16  17
ATOM     17  N   PHE A   1       3.589  47.787  81.066  0.00  0.00    -0.238 NA
ATOM     18  H   PHE A   1       4.043  48.010  80.157  0.00  0.00    +0.142 HD
ENDBRANCH  16  17
BRANCH  16  19
ATOM     19  CB  PHE A   1       5.445  48.537  82.554  0.00  0.00    +0.053 C 
BRANCH  19  20
ATOM     20  CG  PHE A   1       5.841  49.582  83.566  0.00  0.00    -0.020 A 
ATOM     21  CD2 PHE A   1       5.693  49.344  84.928  0.00  0.00    -0.004 A 
ATOM     22  CE2 PHE A   1       5.973  50.342  85.866  0.00  0.00    -0.000 A 
ATOM     23  CZ  PHE A   1       6.404  51.589  85.441  0.00  0.00    -0.000 A 
ATOM     24  CE1 PHE A   1       6.560  51.840  84.075  0.00  0.00    -0.000 A 
ATOM     25  CD1 PHE A   1       6.281  50.839  83.153  0.00  0.00    -0.004 A 
ENDBRANCH  19  20
ENDBRANCH  16  19
ENDBRANCH  12  16
ENDBRANCH  11  13
BRANCH  11  26
ATOM     26  CB  HIS A   2       1.235  52.153  81.803  0.00  0.00    +0.076 C 
BRANCH  26  27
ATOM     27  CG  HIS A   2       1.175  53.503  81.149  0.00  0.00    +0.082 A 
ATOM     28  CD2 HIS A   2       1.538  54.729  81.599  0.00  0.00    +0.115 A 
ATOM     29  NE2 HIS A   2       1.295  55.623  80.585  0.00  0.00    -0.221 NA
ATOM     30  CE1 HIS A   2       0.798  54.972  79.550  0.00  0.00    +0.199 A 
ATOM     31  ND1 HIS A   2       0.714  53.692  79.864  0.00  0.00    -0.227 NA
ENDBRANCH  26  27
ENDBRANCH  11  26
ENDBRANCH   7  11
ENDBRANCH   6   9
BRANCH   6  32
ATOM     32  CB  ASP A   3       3.447  53.009  86.948  0.00  0.00    +0.143 C 
BRANCH  32  33
ATOM     33  CG  ASP A   3       2.820  52.935  88.316  0.00  0.00    +0.367 C 
ATOM     34  OD2 ASP A   3       3.216  52.049  89.091  0.00  0.00    -0.246 OA
ATOM     35  OD1 ASP A   3       1.937  53.760  88.625  0.00  0.00    -0.246 OA
ENDBRANCH  32  33
ENDBRANCH   6  32
ENDBRANCH   2   6
ENDBRANCH   1   3
BRANCH   1  36
ATOM     36  C   ASP A   4       4.854  57.621  87.227  0.00  0.00    +0.241 C 
ATOM     37  O   ASP A   4       5.803  56.928  87.596  0.00  0.00    -0.273 OA
ATOM     38  N   GLY A   5       5.001  58.717  86.490  0.00  0.00    -0.295 N 
ATOM     39  H   GLY A   5       4.166  59.261  86.193  0.00  0.00    +0.150 HD
BRANCH  38  40
ATOM     40  CA  GLY A   5       6.322  59.150  86.103  0.00  0.00    +0.176 C 
BRANCH  40  41
ATOM     41  C   GLY A   5       7.088  59.565  87.347  0.00  0.00    +0.243 C 
ATOM     42  N   GLU A   6       6.377  60.154  88.307  0.00  0.00    -0.297 N 
ATOM     43  H   GLU A   6       5.355  60.284  88.166  0.00  0.00    +0.150 HD
ATOM     44  O   GLY A   5       8.293  59.339  87.447  0.00  0.00    -0.273 OA
BRANCH  42  45
ATOM     45  CA  GLU A   6       6.981  60.622  89.547  0.00  0.00    +0.149 C 
BRANCH  45  46
ATOM     46  C   GLU A   6       7.651  59.507  90.326  0.00  0.00    +0.241 C 
ATOM     47  O   GLU A   6       8.470  59.749  91.208  0.00  0.00    -0.273 OA
ATOM     48  N   LYS A   7       7.293  58.278  89.994  0.00  0.00    -0.298 N 
ATOM     49  H   LYS A   7       6.577  58.147  89.251  0.00  0.00    +0.150 HD
BRANCH  48  50
ATOM     50  CA  LYS A   7       7.866  57.103  90.632  0.00  0.00    +0.137 C 
BRANCH  50  51
ATOM     51  C   LYS A   7       9.351  56.976  90.241  0.00  0.00    +0.227 C 
ATOM     52  O   LYS A   7      10.140  56.303  90.917  0.00  0.00    -0.286 OA
ENDBRANCH  50  51
BRANCH  50  53
ATOM     53  CB  LYS A   7       7.069  55.885  90.182  0.00  0.00    +0.028 C 
BRANCH  53  54
ATOM     54  CG  LYS A   7       7.750  54.580  90.390  0.00  0.00    -0.000 C 
BRANCH  54  55
ATOM     55  CD  LYS A   7       7.036  53.497  89.601  0.00  0.00    -0.024 C 
BRANCH  55  56
ATOM     56  CE  LYS A   7       5.930  52.868  90.393  0.00  0.00    -0.086 C 
BRANCH  56  57
ATOM     57  NZ  LYS A   7       5.655  51.540  89.820  0.00  0.00    +0.380 N 
ATOM     58  HZ1 LYS A   7       4.889  51.085  90.356  0.00  0.00    -0.089 HD
ATOM     59  HZ2 LYS A   7       6.513  50.955  89.875  0.00  0.00    -0.089 HD
ATOM     60  HZ3 LYS A   7       5.369  51.645  88.826  0.00  0.00    -0.089 HD
ENDBRANCH  56  57
ENDBRANCH  55  56
ENDBRANCH  54  55
ENDBRANCH  53  54
ENDBRANCH  50  53
ENDBRANCH  48  50
ENDBRANCH  45  46
BRANCH  45  61
ATOM     61  CB  GLU A   6       5.932  61.302  90.421  0.00  0.00    +0.041 C 
BRANCH  61  62
ATOM     62  CG  GLU A   6       5.241  62.492  89.762  0.00  0.00    +0.116 C 
BRANCH  62  63
ATOM     63  CD  GLU A   6       4.197  62.061  88.755  0.00  0.00    +0.365 C 
ATOM     64  OE2 GLU A   6       3.748  60.897  88.846  0.00  0.00    -0.246 OA
ATOM     65  OE1 GLU A   6       3.818  62.880  87.888  0.00  0.00    -0.246 OA
ENDBRANCH  62  63
ENDBRANCH  61  62
ENDBRANCH  45  61
ENDBRANCH  42  45
ENDBRANCH  40  41
ENDBRANCH  38  40
ENDBRANCH   1  36
BRANCH   1  66
ATOM     66  CB  ASP A   4       3.231  57.573  89.103  0.00  0.00    +0.143 C 
BRANCH  66  67
ATOM     67  CG  ASP A   4       1.771  57.712  89.487  0.00  0.00    +0.367 C 
ATOM     68  OD2 ASP A   4       1.487  58.237  90.585  0.00  0.00    -0.246 OA
ATOM     69  OD1 ASP A   4       0.903  57.288  88.700  0.00  0.00    -0.246 OA
ENDBRANCH  66  67
ENDBRANCH   1  66
TORSDOF 30
REMARK  Name = ../refined-set-2016/1k1y/1k1y_pocket.pdb
REMARK  242 active torsions:
REMARK  status: ('A' for Active; 'I' for Inactive)
REMARK    1  A    between atoms: _1  and  _3
REMARK    2  A    between atoms: _3  and  _4
REMARK    3  A    between atoms: _3  and  _6
REMARK    4  A    between atoms: _6  and  _7
REMARK    5  A    between atoms: _12  and  _14
REMARK    6  A    between atoms: _14  and  _15
REMARK    7  A    between atoms: _14  and  _17
REMARK    8  A    between atoms: _17  and  _18
REMARK    9  A    between atoms: _23  and  _25
REMARK   10  A    between atoms: _25  and  _26
REMARK   11  A    between atoms: _25  and  _28
REMARK   12  A    between atoms: _28  and  _29
REMARK   13  A    between atoms: _34  and  _36
REMARK   14  A    between atoms: _36  and  _37
REMARK   15  A    between atoms: _36  and  _39
REMARK   16  A    between atoms: _39  and  _40
REMARK   17  A    between atoms: _40  and  _41
REMARK   18  A    between atoms: _47  and  _48
REMARK   19  A    between atoms: _53  and  _55
REMARK   20  A    between atoms: _55  and  _56
REMARK   21  A    between atoms: _55  and  _58
REMARK   22  A    between atoms: _58  and  _59
REMARK   23  A    between atoms: _64  and  _66
REMARK   24  A    between atoms: _66  and  _67
REMARK   25  A    between atoms: _66  and  _69
REMARK   26  A    between atoms: _69  and  _70
REMARK   27  A    between atoms: _75  and  _76
REMARK   28  A    between atoms: _78  and  _80
REMARK   29  A    between atoms: _80  and  _81
REMARK   30  A    between atoms: _80  and  _83
REMARK   31  A    between atoms: _83  and  _84
REMARK   32  A    between atoms: _89  and  _91
REMARK   33  A    between atoms: _91  and  _92
REMARK   34  A    between atoms: _91  and  _94
REMARK   35  A    between atoms: _94  and  _95
REMARK   36  A    between atoms: _95  and  _96
REMARK   37  A    between atoms: _99  and  _101
REMARK   38  A    between atoms: _101  and  _102
REMARK   39  A    between atoms: _101  and  _104
REMARK   40  A    between atoms: _104  and  _105
REMARK   41  A    between atoms: _115  and  _117
REMARK   42  A    between atoms: _117  and  _118
REMARK   43  A    between atoms: _117  and  _120
REMARK   44  A    between atoms: _120  and  _121
REMARK   45  A    between atoms: _124  and  _126
REMARK   46  A    between atoms: _126  and  _127
REMARK   47  A    between atoms: _126  and  _129
REMARK   48  A    between atoms: _129  and  _130
REMARK   49  A    between atoms: _133  and  _135
REMARK   50  A    between atoms: _135  and  _136
REMARK   51  A    between atoms: _135  and  _138
REMARK   52  A    between atoms: _138  and  _139
REMARK   53  A    between atoms: _139  and  _140
REMARK   54  A    between atoms: _143  and  _145
REMARK   55  A    between atoms: _145  and  _146
REMARK   56  A    between atoms: _145  and  _148
REMARK   57  A    between atoms: _148  and  _149
REMARK   58  A    between atoms: _149  and  _150
REMARK   59  A    between atoms: _150  and  _151
REMARK   60  A    between atoms: _160  and  _162
REMARK   61  A    between atoms: _162  and  _163
REMARK   62  A    between atoms: _162  and  _165
REMARK   63  A    between atoms: _165  and  _166
REMARK   64  A    between atoms: _169  and  _171
REMARK   65  A    between atoms: _171  and  _172
REMARK   66  A    between atoms: _171  and  _174
REMARK   67  A    between atoms: _174  and  _175
REMARK   68  A    between atoms: _178  and  _180
REMARK   69  A    between atoms: _180  and  _181
REMARK   70  A    between atoms: _180  and  _183
REMARK   71  A    between atoms: _183  and  _184
REMARK   72  A    between atoms: _187  and  _189
REMARK   73  A    between atoms: _189  and  _190
REMARK   74  A    between atoms: _189  and  _192
REMARK   75  A    between atoms: _192  and  _193
REMARK   76  A    between atoms: _193  and  _194
REMARK   77  A    between atoms: _197  and  _199
REMARK   78  A    between atoms: _199  and  _200
REMARK   79  A    between atoms: _199  and  _202
REMARK   80  A    between atoms: _202  and  _203
REMARK   81  A    between atoms: _203  and  _204
REMARK   82  A    between atoms: _204  and  _205
REMARK   83  A    between atoms: _205  and  _206
REMARK   84  A    between atoms: _210  and  _212
REMARK   85  A    between atoms: _212  and  _213
REMARK   86  A    between atoms: _212  and  _215
REMARK   87  A    between atoms: _215  and  _216
REMARK   88  A    between atoms: _219  and  _221
REMARK   89  A    between atoms: _221  and  _222
REMARK   90  A    between atoms: _221  and  _224
REMARK   91  A    between atoms: _224  and  _225
REMARK   92  A    between atoms: _225  and  _226
REMARK   93  A    between atoms: _226  and  _227
REMARK   94  A    between atoms: _236  and  _238
REMARK   95  A    between atoms: _238  and  _239
REMARK   96  A    between atoms: _238  and  _241
REMARK   97  A    between atoms: _241  and  _242
REMARK   98  A    between atoms: _247  and  _248
REMARK   99  A    between atoms: _250  and  _252
REMARK  100  A    between atoms: _252  and  _253
REMARK  101  A    between atoms: _252  and  _255
REMARK  102  A    between atoms: _255  and  _256
REMARK  103  A    between atoms: _259  and  _261
REMARK  104  A    between atoms: _261  and  _262
REMARK  105  A    between atoms: _261  and  _264
REMARK  106  A    between atoms: _264  and  _265
REMARK  107  A    between atoms: _269  and  _270
REMARK  108  A    between atoms: _275  and  _277
REMARK  109  A    between atoms: _277  and  _278
REMARK  110  A    between atoms: _277  and  _280
REMARK  111  A    between atoms: _280  and  _281
REMARK  112  A    between atoms: _287  and  _289
REMARK  113  A    between atoms: _289  and  _290
REMARK  114  A    between atoms: _289  and  _292
REMARK  115  A    between atoms: _292  and  _293
REMARK  116  A    between atoms: _293  and  _294
REMARK  117  A    between atoms: _294  and  _295
REMARK  118  A    between atoms: _304  and  _306
REMARK  119  A    between atoms: _306  and  _307
REMARK  120  A    between atoms: _306  and  _309
REMARK  121  A    between atoms: _309  and  _310
REMARK  122  A    between atoms: _316  and  _318
REMARK  123  A    between atoms: _318  and  _319
REMARK  124  A    between atoms: _318  and  _321
REMARK  125  A    between atoms: _321  and  _322
REMARK  126  A    between atoms: _327  and  _329
REMARK  127  A    between atoms: _329  and  _330
REMARK  128  A    between atoms: _329  and  _332
REMARK  129  A    between atoms: _332  and  _333
REMARK  130  A    between atoms: _336  and  _338
REMARK  131  A    between atoms: _338  and  _339
REMARK  132  A    between atoms: _338  and  _341
REMARK  133  A    between atoms: _341  and  _342
REMARK  134  A    between atoms: _345  and  _347
REMARK  135  A    between atoms: _347  and  _348
REMARK  136  A    between atoms: _350  and  _352
REMARK  137  A    between atoms: _352  and  _353
REMARK  138  A    between atoms: _352  and  _355
REMARK  139  A    between atoms: _355  and  _356
REMARK  140  A    between atoms: _356  and  _357
REMARK  141  A    between atoms: _360  and  _362
REMARK  142  A    between atoms: _362  and  _363
REMARK  143  A    between atoms: _362  and  _365
REMARK  144  A    between atoms: _365  and  _366
REMARK  145  A    between atoms: _366  and  _367
REMARK  146  A    between atoms: _367  and  _368
REMARK  147  A    between atoms: _368  and  _369
REMARK  148  A    between atoms: _373  and  _375
REMARK  149  A    between atoms: _375  and  _376
REMARK  150  A    between atoms: _375  and  _378
REMARK  151  A    between atoms: _378  and  _379
REMARK  152  A    between atoms: _390  and  _391
REMARK  153  A    between atoms: _396  and  _398
REMARK  154  A    between atoms: _398  and  _399
REMARK  155  A    between atoms: _401  and  _403
REMARK  156  A    between atoms: _403  and  _404
REMARK  157  A    between atoms: _403  and  _406
REMARK  158  A    between atoms: _406  and  _407
REMARK  159  A    between atoms: _410  and  _412
REMARK  160  A    between atoms: _412  and  _413
REMARK  161  A    between atoms: _412  and  _415
REMARK  162  A    between atoms: _415  and  _416
REMARK  163  A    between atoms: _418  and  _420
REMARK  164  A    between atoms: _420  and  _421
REMARK  165  A    between atoms: _420  and  _423
REMARK  166  A    between atoms: _423  and  _424
REMARK  167  A    between atoms: _429  and  _430
REMARK  168  A    between atoms: _432  and  _434
REMARK  169  A    between atoms: _434  and  _435
REMARK  170  A    between atoms: _434  and  _437
REMARK  171  A    between atoms: _437  and  _438
REMARK  172  A    between atoms: _444  and  _446
REMARK  173  A    between atoms: _446  and  _447
REMARK  174  A    between atoms: _446  and  _449
REMARK  175  A    between atoms: _449  and  _450
REMARK  176  A    between atoms: _450  and  _451
REMARK  177  A    between atoms: _454  and  _456
REMARK  178  A    between atoms: _456  and  _457
REMARK  179  A    between atoms: _456  and  _459
REMARK  180  A    between atoms: _459  and  _460
REMARK  181  A    between atoms: _460  and  _461
REMARK  182  A    between atoms: _463  and  _465
REMARK  183  A    between atoms: _465  and  _466
REMARK  184  A    between atoms: _465  and  _468
REMARK  185  A    between atoms: _468  and  _469
REMARK  186  A    between atoms: _479  and  _481
REMARK  187  A    between atoms: _481  and  _482
REMARK  188  A    between atoms: _481  and  _484
REMARK  189  A    between atoms: _484  and  _485
REMARK  190  A    between atoms: _495  and  _497
REMARK  191  A    between atoms: _497  and  _498
REMARK  192  A    between atoms: _497  and  _500
REMARK  193  A    between atoms: _500  and  _501
REMARK  194  A    between atoms: _506  and  _508
REMARK  195  A    between atoms: _508  and  _509
REMARK  196  A    between atoms: _508  and  _511
REMARK  197  A    between atoms: _511  and  _512
REMARK  198  A    between atoms: _515  and  _517
REMARK  199  A    between atoms: _517  and  _518
REMARK  200  A    between atoms: _521  and  _523
REMARK  201  A    between atoms: _523  and  _524
REMARK  202  A    between atoms: _523  and  _526
REMARK  203  A    between atoms: _526  and  _527
REMARK  204  A    between atoms: _532  and  _533
REMARK  205  A    between atoms: _535  and  _537
REMARK  206  A    between atoms: _537  and  _538
REMARK  207  A    between atoms: _537  and  _540
REMARK  208  A    between atoms: _540  and  _541
REMARK  209  A    between atoms: _551  and  _553
REMARK  210  A    between atoms: _553  and  _554
REMARK  211  A    between atoms: _553  and  _556
REMARK  212  A    between atoms: _556  and  _557
REMARK  213  A    between atoms: _562  and  _564
REMARK  214  A    between atoms: _564  and  _565
REMARK  215  A    between atoms: _567  and  _569
REMARK  216  A    between atoms: _569  and  _570
REMARK  217  A    between atoms: _569  and  _572
REMARK  218  A    between atoms: _575  and  _577
REMARK  219  A    between atoms: _577  and  _578
REMARK  220  A    between atoms: _577  and  _580
REMARK  221  A    between atoms: _580  and  _581
REMARK  222  A    between atoms: _587  and  _589
REMARK  223  A    between atoms: _589  and  _590
REMARK  224  A    between atoms: _592  and  _594
REMARK  225  A    between atoms: _594  and  _595
REMARK  226  A    between atoms: _597  and  _599
REMARK  227  A    between atoms: _599  and  _600
REMARK  228  A    between atoms: _599  and  _602
REMARK  229  A    between atoms: _602  and  _603
REMARK  230  A    between atoms: _606  and  _608
REMARK  231  A    between atoms: _608  and  _609
REMARK  232  A    between atoms: _608  and  _611
REMARK  233  A    between atoms: _611  and  _612
REMARK  234  A    between atoms: _615  and  _617
REMARK  235  A    between atoms: _617  and  _618
REMARK  236  A    between atoms: _617  and  _620
REMARK  237  A    between atoms: _620  and  _621
REMARK  238  A    between atoms: _624  and  _626
REMARK  239  A    between atoms: _626  and  _627
REMARK  240  A    between atoms: _626  and  _629
REMARK  241  A    between atoms: _629  and  _630
REMARK  242  A    between atoms: _630  and  _631
REMARK                            x       y       z     vdW  Elec       q    Type
REMARK                         _______ _______ _______ _____ _____    ______ ____
ROOT
ATOM      1  C   TRP A   1      10.035  59.210  96.194  0.00  0.00    +0.242 C 
ATOM      2  N   PRO A   2       9.863  59.298  97.520  0.00  0.00    -0.272 N 
ATOM      3  CA  PRO A   2      10.975  59.157  98.464  0.00  0.00    +0.152 C 
ATOM      4  CB  PRO A   2      10.270  58.996  99.811  0.00  0.00    +0.031 C 
ATOM      5  CG  PRO A   2       8.899  58.489  99.438  0.00  0.00    +0.024 C 
ATOM      6  CD  PRO A   2       8.578  59.314  98.234  0.00  0.00    +0.094 C 
ATOM      7  O   TRP A   1      11.146  59.008  95.689  0.00  0.00    -0.273 OA
ENDROOT
BRANCH   3   8
ATOM      8  C   PRO A   2      11.920  58.008  98.150  0.00  0.00    +0.241 C 
ATOM      9  N   GLY A   3      13.201  58.348  98.019  0.00  0.00    -0.295 N 
ATOM     10  H   GLY A   3      13.473  59.346  98.130  0.00  0.00    +0.150 HD
ATOM     11  O   PRO A   2      11.497  56.859  98.012  0.00  0.00    -0.273 OA
BRANCH   9  12
ATOM     12  CA  GLY A   3      14.227  57.366  97.726  0.00  0.00    +0.176 C 
BRANCH  12  13
ATOM     13  C   GLY A   3      14.477  57.072  96.253  0.00  0.00    +0.243 C 
ATOM     14  O   GLY A   3      15.557  56.605  95.896  0.00  0.00    -0.273 OA
ATOM     15  N   THR A   4      13.508  57.367  95.389  0.00  0.00    -0.296 N 
ATOM     16  H   THR A   4      12.640  57.830  95.727  0.00  0.00    +0.150 HD
BRANCH  15  17
ATOM     17  CA  THR A   4      13.651  57.047  93.974  0.00  0.00    +0.164 C 
BRANCH  17  18
ATOM     18  CB  THR A   4      12.294  57.136  93.241  0.00  0.00    +0.136 C 
ATOM     19  CG2 THR A   4      11.239  56.321  93.997  0.00  0.00    +0.034 C 
BRANCH  18  20
ATOM     20  OG1 THR A   4      11.868  58.499  93.154  0.00  0.00    -0.382 OA
ATOM     21  HG1 THR A   4      11.769  58.872  94.066  0.00  0.00    +0.210 HD
ENDBRANCH  18  20
ENDBRANCH  17  18
BRANCH  17  22
ATOM     22  C   THR A   4      14.700  57.798  93.169  0.00  0.00    +0.229 C 
ATOM     23  O   THR A   4      15.211  57.258  92.197  0.00  0.00    -0.286 OA
ENDBRANCH  17  22
ENDBRANCH  15  17
ENDBRANCH  12  13
ENDBRANCH   9  12
ENDBRANCH   3   8
BRANCH   1  24
ATOM     24  CA  TRP A   1       8.796  59.382  95.325  0.00  0.00    +0.149 C 
BRANCH  24  25
ATOM     25  N   TRP A   1       9.138  60.185  94.163  0.00  0.00    -0.238 NA
ATOM     26  H   TRP A   1       8.857  59.868  93.213  0.00  0.00    +0.142 HD
ENDBRANCH  24  25
BRANCH  24  27
ATOM     27  CB  TRP A   1       8.263  58.026  94.880  0.00  0.00    +0.054 C 
BRANCH  27  28
ATOM     28  CG  TRP A   1       6.934  58.119  94.196  0.00  0.00    -0.002 A 
ATOM     29  CD2 TRP A   1       6.052  57.034  93.896  0.00  0.00    +0.013 A 
ATOM     30  CE3 TRP A   1       6.097  55.653  94.132  0.00  0.00    +0.001 A 
ATOM     31  CZ3 TRP A   1       5.032  54.869  93.692  0.00  0.00    +0.000 A 
ATOM     32  CH2 TRP A   1       3.940  55.442  93.027  0.00  0.00    +0.001 A 
ATOM     33  CZ2 TRP A   1       3.874  56.789  92.783  0.00  0.00    +0.017 A 
ATOM     34  CE2 TRP A   1       4.935  57.577  93.221  0.00  0.00    +0.056 A 
ATOM     35  NE1 TRP A   1       5.133  58.928  93.117  0.00  0.00    -0.352 N 
ATOM     36  HE1 TRP A   1       4.481  59.602  92.667  0.00  0.00    +0.166 HD
ATOM     37  CD1 TRP A   1       6.333  59.249  93.703  0.00  0.00    +0.068 A 
ENDBRANCH  27  28
ENDBRANCH  24  27
ENDBRANCH   1  24
TORSDOF 11
REMARK  Name = ../refined-set-2016/1k1y/1k1y_pocket.pdb
REMARK  242 active torsions:
REMARK  status: ('A' for Active; 'I' for Inactive)
REMARK    1  A    between atoms: _1  and  _3
REMARK    2  A    between atoms: _3  and  _4
REMARK    3  A    between atoms: _3  and  _6
REMARK    4  A    between atoms: _6  and  _7
REMARK    5  A    between atoms: _12  and  _14
REMARK    6  A    between atoms: _14  and  _15
REMARK    7  A    between atoms: _14  and  _17
REMARK    8  A    between atoms: _17  and  _18
REMARK    9  A    between atoms: _23  and  _25
REMARK   10  A    between atoms: _25  and  _26
REMARK   11  A    between atoms: _25  and  _28
REMARK   12  A    between atoms: _28  and  _29
REMARK   13  A    between atoms: _34  and  _36
REMARK   14  A    between atoms: _36  and  _37
REMARK   15  A    between atoms: _36  and  _39
REMARK   16  A    between atoms: _39  and  _40
REMARK   17  A    between atoms: _40  and  _41
REMARK   18  A    between atoms: _47  and  _48
REMARK   19  A    between atoms: _53  and  _55
REMARK   20  A    between atoms: _55  and  _56
REMARK   21  A    between atoms: _55  and  _58
REMARK   22  A    between atoms: _58  and  _59
REMARK   23  A    between atoms: _64  and  _66
REMARK   24  A    between atoms: _66  and  _67
REMARK   25  A    between atoms: _66  and  _69
REMARK   26  A    between atoms: _69  and  _70
REMARK   27  A    between atoms: _75  and  _76
REMARK   28  A    between atoms: _78  and  _80
REMARK   29  A    between atoms: _80  and  _81
REMARK   30  A    between atoms: _80  and  _83
REMARK   31  A    between atoms: _83  and  _84
REMARK   32  A    between atoms: _89  and  _91
REMARK   33  A    between atoms: _91  and  _92
REMARK   34  A    between atoms: _91  and  _94
REMARK   35  A    between atoms: _94  and  _95
REMARK   36  A    between atoms: _95  and  _96
REMARK   37  A    between atoms: _99  and  _101
REMARK   38  A    between atoms: _101  and  _102
REMARK   39  A    between atoms: _101  and  _104
REMARK   40  A    between atoms: _104  and  _105
REMARK   41  A    between atoms: _115  and  _117
REMARK   42  A    between atoms: _117  and  _118
REMARK   43  A    between atoms: _117  and  _120
REMARK   44  A    between atoms: _120  and  _121
REMARK   45  A    between atoms: _124  and  _126
REMARK   46  A    between atoms: _126  and  _127
REMARK   47  A    between atoms: _126  and  _129
REMARK   48  A    between atoms: _129  and  _130
REMARK   49  A    between atoms: _133  and  _135
REMARK   50  A    between atoms: _135  and  _136
REMARK   51  A    between atoms: _135  and  _138
REMARK   52  A    between atoms: _138  and  _139
REMARK   53  A    between atoms: _139  and  _140
REMARK   54  A    between atoms: _143  and  _145
REMARK   55  A    between atoms: _145  and  _146
REMARK   56  A    between atoms: _145  and  _148
REMARK   57  A    between atoms: _148  and  _149
REMARK   58  A    between atoms: _149  and  _150
REMARK   59  A    between atoms: _150  and  _151
REMARK   60  A    between atoms: _160  and  _162
REMARK   61  A    between atoms: _162  and  _163
REMARK   62  A    between atoms: _162  and  _165
REMARK   63  A    between atoms: _165  and  _166
REMARK   64  A    between atoms: _169  and  _171
REMARK   65  A    between atoms: _171  and  _172
REMARK   66  A    between atoms: _171  and  _174
REMARK   67  A    between atoms: _174  and  _175
REMARK   68  A    between atoms: _178  and  _180
REMARK   69  A    between atoms: _180  and  _181
REMARK   70  A    between atoms: _180  and  _183
REMARK   71  A    between atoms: _183  and  _184
REMARK   72  A    between atoms: _187  and  _189
REMARK   73  A    between atoms: _189  and  _190
REMARK   74  A    between atoms: _189  and  _192
REMARK   75  A    between atoms: _192  and  _193
REMARK   76  A    between atoms: _193  and  _194
REMARK   77  A    between atoms: _197  and  _199
REMARK   78  A    between atoms: _199  and  _200
REMARK   79  A    between atoms: _199  and  _202
REMARK   80  A    between atoms: _202  and  _203
REMARK   81  A    between atoms: _203  and  _204
REMARK   82  A    between atoms: _204  and  _205
REMARK   83  A    between atoms: _205  and  _206
REMARK   84  A    between atoms: _210  and  _212
REMARK   85  A    between atoms: _212  and  _213
REMARK   86  A    between atoms: _212  and  _215
REMARK   87  A    between atoms: _215  and  _216
REMARK   88  A    between atoms: _219  and  _221
REMARK   89  A    between atoms: _221  and  _222
REMARK   90  A    between atoms: _221  and  _224
REMARK   91  A    between atoms: _224  and  _225
REMARK   92  A    between atoms: _225  and  _226
REMARK   93  A    between atoms: _226  and  _227
REMARK   94  A    between atoms: _236  and  _238
REMARK   95  A    between atoms: _238  and  _239
REMARK   96  A    between atoms: _238  and  _241
REMARK   97  A    between atoms: _241  and  _242
REMARK   98  A    between atoms: _247  and  _248
REMARK   99  A    between atoms: _250  and  _252
REMARK  100  A    between atoms: _252  and  _253
REMARK  101  A    between atoms: _252  and  _255
REMARK  102  A    between atoms: _255  and  _256
REMARK  103  A    between atoms: _259  and  _261
REMARK  104  A    between atoms: _261  and  _262
REMARK  105  A    between atoms: _261  and  _264
REMARK  106  A    between atoms: _264  and  _265
REMARK  107  A    between atoms: _269  and  _270
REMARK  108  A    between atoms: _275  and  _277
REMARK  109  A    between atoms: _277  and  _278
REMARK  110  A    between atoms: _277  and  _280
REMARK  111  A    between atoms: _280  and  _281
REMARK  112  A    between atoms: _287  and  _289
REMARK  113  A    between atoms: _289  and  _290
REMARK  114  A    between atoms: _289  and  _292
REMARK  115  A    between atoms: _292  and  _293
REMARK  116  A    between atoms: _293  and  _294
REMARK  117  A    between atoms: _294  and  _295
REMARK  118  A    between atoms: _304  and  _306
REMARK  119  A    between atoms: _306  and  _307
REMARK  120  A    between atoms: _306  and  _309
REMARK  121  A    between atoms: _309  and  _310
REMARK  122  A    between atoms: _316  and  _318
REMARK  123  A    between atoms: _318  and  _319
REMARK  124  A    between atoms: _318  and  _321
REMARK  125  A    between atoms: _321  and  _322
REMARK  126  A    between atoms: _327  and  _329
REMARK  127  A    between atoms: _329  and  _330
REMARK  128  A    between atoms: _329  and  _332
REMARK  129  A    between atoms: _332  and  _333
REMARK  130  A    between atoms: _336  and  _338
REMARK  131  A    between atoms: _338  and  _339
REMARK  132  A    between atoms: _338  and  _341
REMARK  133  A    between atoms: _341  and  _342
REMARK  134  A    between atoms: _345  and  _347
REMARK  135  A    between atoms: _347  and  _348
REMARK  136  A    between atoms: _350  and  _352
REMARK  137  A    between atoms: _352  and  _353
REMARK  138  A    between atoms: _352  and  _355
REMARK  139  A    between atoms: _355  and  _356
REMARK  140  A    between atoms: _356  and  _357
REMARK  141  A    between atoms: _360  and  _362
REMARK  142  A    between atoms: _362  and  _363
REMARK  143  A    between atoms: _362  and  _365
REMARK  144  A    between atoms: _365  and  _366
REMARK  145  A    between atoms: _366  and  _367
REMARK  146  A    between atoms: _367  and  _368
REMARK  147  A    between atoms: _368  and  _369
REMARK  148  A    between atoms: _373  and  _375
REMARK  149  A    between atoms: _375  and  _376
REMARK  150  A    between atoms: _375  and  _378
REMARK  151  A    between atoms: _378  and  _379
REMARK  152  A    between atoms: _390  and  _391
REMARK  153  A    between atoms: _396  and  _398
REMARK  154  A    between atoms: _398  and  _399
REMARK  155  A    between atoms: _401  and  _403
REMARK  156  A    between atoms: _403  and  _404
REMARK  157  A    between atoms: _403  and  _406
REMARK  158  A    between atoms: _406  and  _407
REMARK  159  A    between atoms: _410  and  _412
REMARK  160  A    between atoms: _412  and  _413
REMARK  161  A    between atoms: _412  and  _415
REMARK  162  A    between atoms: _415  and  _416
REMARK  163  A    between atoms: _418  and  _420
REMARK  164  A    between atoms: _420  and  _421
REMARK  165  A    between atoms: _420  and  _423
REMARK  166  A    between atoms: _423  and  _424
REMARK  167  A    between atoms: _429  and  _430
REMARK  168  A    between atoms: _432  and  _434
REMARK  169  A    between atoms: _434  and  _435
REMARK  170  A    between atoms: _434  and  _437
REMARK  171  A    between atoms: _437  and  _438
REMARK  172  A    between atoms: _444  and  _446
REMARK  173  A    between atoms: _446  and  _447
REMARK  174  A    between atoms: _446  and  _449
REMARK  175  A    between atoms: _449  and  _450
REMARK  176  A    between atoms: _450  and  _451
REMARK  177  A    between atoms: _454  and  _456
REMARK  178  A    between atoms: _456  and  _457
REMARK  179  A    between atoms: _456  and  _459
REMARK  180  A    between atoms: _459  and  _460
REMARK  181  A    between atoms: _460  and  _461
REMARK  182  A    between atoms: _463  and  _465
REMARK  183  A    between atoms: _465  and  _466
REMARK  184  A    between atoms: _465  and  _468
REMARK  185  A    between atoms: _468  and  _469
REMARK  186  A    between atoms: _479  and  _481
REMARK  187  A    between atoms: _481  and  _482
REMARK  188  A    between atoms: _481  and  _484
REMARK  189  A    between atoms: _484  and  _485
REMARK  190  A    between atoms: _495  and  _497
REMARK  191  A    between atoms: _497  and  _498
REMARK  192  A    between atoms: _497  and  _500
REMARK  193  A    between atoms: _500  and  _501
REMARK  194  A    between atoms: _506  and  _508
REMARK  195  A    between atoms: _508  and  _509
REMARK  196  A    between atoms: _508  and  _511
REMARK  197  A    between atoms: _511  and  _512
REMARK  198  A    between atoms: _515  and  _517
REMARK  199  A    between atoms: _517  and  _518
REMARK  200  A    between atoms: _521  and  _523
REMARK  201  A    between atoms: _523  and  _524
REMARK  202  A    between atoms: _523  and  _526
REMARK  203  A    between atoms: _526  and  _527
REMARK  204  A    between atoms: _532  and  _533
REMARK  205  A    between atoms: _535  and  _537
REMARK  206  A    between atoms: _537  and  _538
REMARK  207  A    between atoms: _537  and  _540
REMARK  208  A    between atoms: _540  and  _541
REMARK  209  A    between atoms: _551  and  _553
REMARK  210  A    between atoms: _553  and  _554
REMARK  211  A    between atoms: _553  and  _556
REMARK  212  A    between atoms: _556  and  _557
REMARK  213  A    between atoms: _562  and  _564
REMARK  214  A    between atoms: _564  and  _565
REMARK  215  A    between atoms: _567  and  _569
REMARK  216  A    between atoms: _569  and  _570
REMARK  217  A    between atoms: _569  and  _572
REMARK  218  A    between atoms: _575  and  _577
REMARK  219  A    between atoms: _577  and  _578
REMARK  220  A    between atoms: _577  and  _580
REMARK  221  A    between atoms: _580  and  _581
REMARK  222  A    between atoms: _587  and  _589
REMARK  223  A    between atoms: _589  and  _590
REMARK  224  A    between atoms: _592  and  _594
REMARK  225  A    between atoms: _594  and  _595
REMARK  226  A    between atoms: _597  and  _599
REMARK  227  A    between atoms: _599  and  _600
REMARK  228  A    between atoms: _599  and  _602
REMARK  229  A    between atoms: _602  and  _603
REMARK  230  A    between atoms: _606  and  _608
REMARK  231  A    between atoms: _608  and  _609
REMARK  232  A    between atoms: _608  and  _611
REMARK  233  A    between atoms: _611  and  _612
REMARK  234  A    between atoms: _615  and  _617
REMARK  235  A    between atoms: _617  and  _618
REMARK  236  A    between atoms: _617  and  _620
REMARK  237  A    between atoms: _620  and  _621
REMARK  238  A    between atoms: _624  and  _626
REMARK  239  A    between atoms: _626  and  _627
REMARK  240  A    between atoms: _626  and  _629
REMARK  241  A    between atoms: _629  and  _630
REMARK  242  A    between atoms: _630  and  _631
REMARK                            x       y       z     vdW  Elec       q    Type
REMARK                         _______ _______ _______ _____ _____    ______ ____
ROOT
ATOM      1  CA  PHE A   3      -6.248  46.730  92.971  0.00  0.00    +0.153 C 
ENDROOT
BRANCH   1   4
ATOM      2  C   TYR A   2      -6.570  48.610  91.448  0.00  0.00    +0.241 C 
ATOM      3  O   TYR A   2      -7.295  49.195  92.253  0.00  0.00    -0.273 OA
ATOM      4  N   PHE A   3      -6.013  47.431  91.708  0.00  0.00    -0.297 N 
ATOM      5  H   PHE A   3      -5.394  46.995  90.995  0.00  0.00    +0.150 HD
BRANCH   2   6
ATOM      6  CA  TYR A   2      -6.305  49.219  90.063  0.00  0.00    +0.153 C 
BRANCH   6   8
ATOM      7  C   SER A   1      -8.629  49.555  89.559  0.00  0.00    +0.241 C 
ATOM      8  N   TYR A   2      -7.440  50.097  89.791  0.00  0.00    -0.297 N 
ATOM      9  H   TYR A   2      -7.318  51.130  89.779  0.00  0.00    +0.150 HD
ATOM     10  O   SER A   1      -8.796  48.334  89.505  0.00  0.00    -0.274 OA
BRANCH   7  11
ATOM     11  CA  SER A   1      -9.810  50.483  89.328  0.00  0.00    +0.174 C 
BRANCH  11  12
ATOM     12  N   SER A   1     -10.920  49.561  89.384  0.00  0.00    -0.236 NA
ATOM     13  H   SER A   1     -10.778  48.637  89.839  0.00  0.00    +0.142 HD
ENDBRANCH  11  12
BRANCH  11  14
ATOM     14  CB  SER A   1      -9.960  51.499  90.465  0.00  0.00    +0.163 C 
BRANCH  14  15
ATOM     15  OG  SER A   1      -8.918  52.444  90.458  0.00  0.00    -0.380 OA
ATOM     16  H   SER A   1      -8.924  52.934  89.598  0.00  0.00    +0.211 HD
ENDBRANCH  14  15
ENDBRANCH  11  14
ENDBRANCH   7  11
ENDBRANCH   6   8
BRANCH   6  17
ATOM     17  CB  TYR A   2      -4.977  49.996  90.002  0.00  0.00    +0.055 C 
BRANCH  17  18
ATOM     18  CG  TYR A   2      -4.948  51.343  90.696  0.00  0.00    -0.020 A 
ATOM     19  CD2 TYR A   2      -4.376  51.483  91.961  0.00  0.00    -0.001 A 
ATOM     20  CE2 TYR A   2      -4.271  52.741  92.584  0.00  0.00    +0.036 A 
ATOM     21  CZ  TYR A   2      -4.747  53.873  91.935  0.00  0.00    +0.134 A 
ATOM     22  CE1 TYR A   2      -5.336  53.754  90.673  0.00  0.00    +0.036 A 
ATOM     23  CD1 TYR A   2      -5.432  52.491  90.063  0.00  0.00    -0.001 A 
BRANCH  21  24
ATOM     24  OH  TYR A   2      -4.604  55.118  92.535  0.00  0.00    -0.506 OA
ATOM     25  HH  TYR A   2      -5.496  55.531  92.653  0.00  0.00    +0.292 HD
ENDBRANCH  21  24
ENDBRANCH  17  18
ENDBRANCH   6  17
ENDBRANCH   2   6
ENDBRANCH   1   4
BRANCH   1  26
ATOM     26  C   PHE A   3      -6.172  47.525  94.280  0.00  0.00    +0.241 C 
ATOM     27  O   PHE A   3      -7.089  47.465  95.107  0.00  0.00    -0.273 OA
ATOM     28  N   GLU A   4      -5.074  48.248  94.475  0.00  0.00    -0.297 N 
ATOM     29  H   GLU A   4      -4.336  48.253  93.742  0.00  0.00    +0.150 HD
BRANCH  28  30
ATOM     30  CA  GLU A   4      -4.874  49.035  95.686  0.00  0.00    +0.149 C 
BRANCH  30  31
ATOM     31  C   GLU A   4      -6.067  49.938  96.008  0.00  0.00    +0.241 C 
ATOM     32  O   GLU A   4      -6.362  50.199  97.177  0.00  0.00    -0.273 OA
ATOM     33  N   MET A   5      -6.768  50.398  94.977  0.00  0.00    -0.298 N 
ATOM     34  H   MET A   5      -6.495  50.129  94.010  0.00  0.00    +0.150 HD
BRANCH  33  35
ATOM     35  CA  MET A   5      -7.917  51.276  95.183  0.00  0.00    +0.138 C 
BRANCH  35  36
ATOM     36  C   MET A   5      -9.095  50.558  95.831  0.00  0.00    +0.227 C 
ATOM     37  O   MET A   5      -9.966  51.201  96.425  0.00  0.00    -0.286 OA
ENDBRANCH  35  36
BRANCH  35  38
ATOM     38  CB  MET A   5      -8.379  51.881  93.852  0.00  0.00    +0.039 C 
BRANCH  38  39
ATOM     39  CG  MET A   5      -9.526  52.885  93.972  0.00  0.00    +0.060 C 
BRANCH  39  40
ATOM     40  SD  MET A   5      -9.030  54.470  94.685  0.00  0.00    -0.139 S 
ATOM     41  CE  MET A   5      -8.150  55.177  93.295  0.00  0.00    +0.069 C 
ENDBRANCH  39  40
ENDBRANCH  38  39
ENDBRANCH  35  38
ENDBRANCH  33  35
ENDBRANCH  30  31
BRANCH  30  42
ATOM     42  CB  GLU A   4      -3.592  49.871  95.551  0.00  0.00    +0.041 C 
BRANCH  42  43
ATOM     43  CG  GLU A   4      -2.313  49.030  95.376  0.00  0.00    +0.116 C 
BRANCH  43  44
ATOM     44  CD  GLU A   4      -1.925  48.789  93.915  0.00  0.00    +0.365 C 
ATOM     45  OE2 GLU A   4      -0.726  48.960  93.586  0.00  0.00    -0.246 OA
ATOM     46  OE1 GLU A   4      -2.802  48.421  93.096  0.00  0.00    -0.246 OA
ENDBRANCH  43  44
ENDBRANCH  42  43
ENDBRANCH  30  42
ENDBRANCH  28  30
ENDBRANCH   1  26
BRANCH   1  47
ATOM     47  CB  PHE A   3      -5.314  45.535  93.098  0.00  0.00    +0.055 C 
BRANCH  47  48
ATOM     48  CG  PHE A   3      -5.638  44.663  94.267  0.00  0.00    -0.020 A 
ATOM     49  CD2 PHE A   3      -4.909  44.761  95.447  0.00  0.00    -0.004 A 
ATOM     50  CE2 PHE A   3      -5.247  43.989  96.557  0.00  0.00    -0.000 A 
ATOM     51  CZ  PHE A   3      -6.324  43.108  96.489  0.00  0.00    -0.000 A 
ATOM     52  CE1 PHE A   3      -7.057  43.002  95.312  0.00  0.00    -0.000 A 
ATOM     53  CD1 PHE A   3      -6.712  43.778  94.209  0.00  0.00    -0.004 A 
ENDBRANCH  47  48
ENDBRANCH   1  47
TORSDOF 23
REMARK  Name = ../refined-set-2016/1k1y/1k1y_pocket.pdb
REMARK  242 active torsions:
REMARK  status: ('A' for Active; 'I' for Inactive)
REMARK    1  A    between atoms: _1  and  _3
REMARK    2  A    between atoms: _3  and  _4
REMARK    3  A    between atoms: _3  and  _6
REMARK    4  A    between atoms: _6  and  _7
REMARK    5  A    between atoms: _12  and  _14
REMARK    6  A    between atoms: _14  and  _15
REMARK    7  A    between atoms: _14  and  _17
REMARK    8  A    between atoms: _17  and  _18
REMARK    9  A    between atoms: _23  and  _25
REMARK   10  A    between atoms: _25  and  _26
REMARK   11  A    between atoms: _25  and  _28
REMARK   12  A    between atoms: _28  and  _29
REMARK   13  A    between atoms: _34  and  _36
REMARK   14  A    between atoms: _36  and  _37
REMARK   15  A    between atoms: _36  and  _39
REMARK   16  A    between atoms: _39  and  _40
REMARK   17  A    between atoms: _40  and  _41
REMARK   18  A    between atoms: _47  and  _48
REMARK   19  A    between atoms: _53  and  _55
REMARK   20  A    between atoms: _55  and  _56
REMARK   21  A    between atoms: _55  and  _58
REMARK   22  A    between atoms: _58  and  _59
REMARK   23  A    between atoms: _64  and  _66
REMARK   24  A    between atoms: _66  and  _67
REMARK   25  A    between atoms: _66  and  _69
REMARK   26  A    between atoms: _69  and  _70
REMARK   27  A    between atoms: _75  and  _76
REMARK   28  A    between atoms: _78  and  _80
REMARK   29  A    between atoms: _80  and  _81
REMARK   30  A    between atoms: _80  and  _83
REMARK   31  A    between atoms: _83  and  _84
REMARK   32  A    between atoms: _89  and  _91
REMARK   33  A    between atoms: _91  and  _92
REMARK   34  A    between atoms: _91  and  _94
REMARK   35  A    between atoms: _94  and  _95
REMARK   36  A    between atoms: _95  and  _96
REMARK   37  A    between atoms: _99  and  _101
REMARK   38  A    between atoms: _101  and  _102
REMARK   39  A    between atoms: _101  and  _104
REMARK   40  A    between atoms: _104  and  _105
REMARK   41  A    between atoms: _115  and  _117
REMARK   42  A    between atoms: _117  and  _118
REMARK   43  A    between atoms: _117  and  _120
REMARK   44  A    between atoms: _120  and  _121
REMARK   45  A    between atoms: _124  and  _126
REMARK   46  A    between atoms: _126  and  _127
REMARK   47  A    between atoms: _126  and  _129
REMARK   48  A    between atoms: _129  and  _130
REMARK   49  A    between atoms: _133  and  _135
REMARK   50  A    between atoms: _135  and  _136
REMARK   51  A    between atoms: _135  and  _138
REMARK   52  A    between atoms: _138  and  _139
REMARK   53  A    between atoms: _139  and  _140
REMARK   54  A    between atoms: _143  and  _145
REMARK   55  A    between atoms: _145  and  _146
REMARK   56  A    between atoms: _145  and  _148
REMARK   57  A    between atoms: _148  and  _149
REMARK   58  A    between atoms: _149  and  _150
REMARK   59  A    between atoms: _150  and  _151
REMARK   60  A    between atoms: _160  and  _162
REMARK   61  A    between atoms: _162  and  _163
REMARK   62  A    between atoms: _162  and  _165
REMARK   63  A    between atoms: _165  and  _166
REMARK   64  A    between atoms: _169  and  _171
REMARK   65  A    between atoms: _171  and  _172
REMARK   66  A    between atoms: _171  and  _174
REMARK   67  A    between atoms: _174  and  _175
REMARK   68  A    between atoms: _178  and  _180
REMARK   69  A    between atoms: _180  and  _181
REMARK   70  A    between atoms: _180  and  _183
REMARK   71  A    between atoms: _183  and  _184
REMARK   72  A    between atoms: _187  and  _189
REMARK   73  A    between atoms: _189  and  _190
REMARK   74  A    between atoms: _189  and  _192
REMARK   75  A    between atoms: _192  and  _193
REMARK   76  A    between atoms: _193  and  _194
REMARK   77  A    between atoms: _197  and  _199
REMARK   78  A    between atoms: _199  and  _200
REMARK   79  A    between atoms: _199  and  _202
REMARK   80  A    between atoms: _202  and  _203
REMARK   81  A    between atoms: _203  and  _204
REMARK   82  A    between atoms: _204  and  _205
REMARK   83  A    between atoms: _205  and  _206
REMARK   84  A    between atoms: _210  and  _212
REMARK   85  A    between atoms: _212  and  _213
REMARK   86  A    between atoms: _212  and  _215
REMARK   87  A    between atoms: _215  and  _216
REMARK   88  A    between atoms: _219  and  _221
REMARK   89  A    between atoms: _221  and  _222
REMARK   90  A    between atoms: _221  and  _224
REMARK   91  A    between atoms: _224  and  _225
REMARK   92  A    between atoms: _225  and  _226
REMARK   93  A    between atoms: _226  and  _227
REMARK   94  A    between atoms: _236  and  _238
REMARK   95  A    between atoms: _238  and  _239
REMARK   96  A    between atoms: _238  and  _241
REMARK   97  A    between atoms: _241  and  _242
REMARK   98  A    between atoms: _247  and  _248
REMARK   99  A    between atoms: _250  and  _252
REMARK  100  A    between atoms: _252  and  _253
REMARK  101  A    between atoms: _252  and  _255
REMARK  102  A    between atoms: _255  and  _256
REMARK  103  A    between atoms: _259  and  _261
REMARK  104  A    between atoms: _261  and  _262
REMARK  105  A    between atoms: _261  and  _264
REMARK  106  A    between atoms: _264  and  _265
REMARK  107  A    between atoms: _269  and  _270
REMARK  108  A    between atoms: _275  and  _277
REMARK  109  A    between atoms: _277  and  _278
REMARK  110  A    between atoms: _277  and  _280
REMARK  111  A    between atoms: _280  and  _281
REMARK  112  A    between atoms: _287  and  _289
REMARK  113  A    between atoms: _289  and  _290
REMARK  114  A    between atoms: _289  and  _292
REMARK  115  A    between atoms: _292  and  _293
REMARK  116  A    between atoms: _293  and  _294
REMARK  117  A    between atoms: _294  and  _295
REMARK  118  A    between atoms: _304  and  _306
REMARK  119  A    between atoms: _306  and  _307
REMARK  120  A    between atoms: _306  and  _309
REMARK  121  A    between atoms: _309  and  _310
REMARK  122  A    between atoms: _316  and  _318
REMARK  123  A    between atoms: _318  and  _319
REMARK  124  A    between atoms: _318  and  _321
REMARK  125  A    between atoms: _321  and  _322
REMARK  126  A    between atoms: _327  and  _329
REMARK  127  A    between atoms: _329  and  _330
REMARK  128  A    between atoms: _329  and  _332
REMARK  129  A    between atoms: _332  and  _333
REMARK  130  A    between atoms: _336  and  _338
REMARK  131  A    between atoms: _338  and  _339
REMARK  132  A    between atoms: _338  and  _341
REMARK  133  A    between atoms: _341  and  _342
REMARK  134  A    between atoms: _345  and  _347
REMARK  135  A    between atoms: _347  and  _348
REMARK  136  A    between atoms: _350  and  _352
REMARK  137  A    between atoms: _352  and  _353
REMARK  138  A    between atoms: _352  and  _355
REMARK  139  A    between atoms: _355  and  _356
REMARK  140  A    between atoms: _356  and  _357
REMARK  141  A    between atoms: _360  and  _362
REMARK  142  A    between atoms: _362  and  _363
REMARK  143  A    between atoms: _362  and  _365
REMARK  144  A    between atoms: _365  and  _366
REMARK  145  A    between atoms: _366  and  _367
REMARK  146  A    between atoms: _367  and  _368
REMARK  147  A    between atoms: _368  and  _369
REMARK  148  A    between atoms: _373  and  _375
REMARK  149  A    between atoms: _375  and  _376
REMARK  150  A    between atoms: _375  and  _378
REMARK  151  A    between atoms: _378  and  _379
REMARK  152  A    between atoms: _390  and  _391
REMARK  153  A    between atoms: _396  and  _398
REMARK  154  A    between atoms: _398  and  _399
REMARK  155  A    between atoms: _401  and  _403
REMARK  156  A    between atoms: _403  and  _404
REMARK  157  A    between atoms: _403  and  _406
REMARK  158  A    between atoms: _406  and  _407
REMARK  159  A    between atoms: _410  and  _412
REMARK  160  A    between atoms: _412  and  _413
REMARK  161  A    between atoms: _412  and  _415
REMARK  162  A    between atoms: _415  and  _416
REMARK  163  A    between atoms: _418  and  _420
REMARK  164  A    between atoms: _420  and  _421
REMARK  165  A    between atoms: _420  and  _423
REMARK  166  A    between atoms: _423  and  _424
REMARK  167  A    between atoms: _429  and  _430
REMARK  168  A    between atoms: _432  and  _434
REMARK  169  A    between atoms: _434  and  _435
REMARK  170  A    between atoms: _434  and  _437
REMARK  171  A    between atoms: _437  and  _438
REMARK  172  A    between atoms: _444  and  _446
REMARK  173  A    between atoms: _446  and  _447
REMARK  174  A    between atoms: _446  and  _449
REMARK  175  A    between atoms: _449  and  _450
REMARK  176  A    between atoms: _450  and  _451
REMARK  177  A    between atoms: _454  and  _456
REMARK  178  A    between atoms: _456  and  _457
REMARK  179  A    between atoms: _456  and  _459
REMARK  180  A    between atoms: _459  and  _460
REMARK  181  A    between atoms: _460  and  _461
REMARK  182  A    between atoms: _463  and  _465
REMARK  183  A    between atoms: _465  and  _466
REMARK  184  A    between atoms: _465  and  _468
REMARK  185  A    between atoms: _468  and  _469
REMARK  186  A    between atoms: _479  and  _481
REMARK  187  A    between atoms: _481  and  _482
REMARK  188  A    between atoms: _481  and  _484
REMARK  189  A    between atoms: _484  and  _485
REMARK  190  A    between atoms: _495  and  _497
REMARK  191  A    between atoms: _497  and  _498
REMARK  192  A    between atoms: _497  and  _500
REMARK  193  A    between atoms: _500  and  _501
REMARK  194  A    between atoms: _506  and  _508
REMARK  195  A    between atoms: _508  and  _509
REMARK  196  A    between atoms: _508  and  _511
REMARK  197  A    between atoms: _511  and  _512
REMARK  198  A    between atoms: _515  and  _517
REMARK  199  A    between atoms: _517  and  _518
REMARK  200  A    between atoms: _521  and  _523
REMARK  201  A    between atoms: _523  and  _524
REMARK  202  A    between atoms: _523  and  _526
REMARK  203  A    between atoms: _526  and  _527
REMARK  204  A    between atoms: _532  and  _533
REMARK  205  A    between atoms: _535  and  _537
REMARK  206  A    between atoms: _537  and  _538
REMARK  207  A    between atoms: _537  and  _540
REMARK  208  A    between atoms: _540  and  _541
REMARK  209  A    between atoms: _551  and  _553
REMARK  210  A    between atoms: _553  and  _554
REMARK  211  A    between atoms: _553  and  _556
REMARK  212  A    between atoms: _556  and  _557
REMARK  213  A    between atoms: _562  and  _564
REMARK  214  A    between atoms: _564  and  _565
REMARK  215  A    between atoms: _567  and  _569
REMARK  216  A    between atoms: _569  and  _570
REMARK  217  A    between atoms: _569  and  _572
REMARK  218  A    between atoms: _575  and  _577
REMARK  219  A    between atoms: _577  and  _578
REMARK  220  A    between atoms: _577  and  _580
REMARK  221  A    between atoms: _580  and  _581
REMARK  222  A    between atoms: _587  and  _589
REMARK  223  A    between atoms: _589  and  _590
REMARK  224  A    between atoms: _592  and  _594
REMARK  225  A    between atoms: _594  and  _595
REMARK  226  A    between atoms: _597  and  _599
REMARK  227  A    between atoms: _599  and  _600
REMARK  228  A    between atoms: _599  and  _602
REMARK  229  A    between atoms: _602  and  _603
REMARK  230  A    between atoms: _606  and  _608
REMARK  231  A    between atoms: _608  and  _609
REMARK  232  A    between atoms: _608  and  _611
REMARK  233  A    between atoms: _611  and  _612
REMARK  234  A    between atoms: _615  and  _617
REMARK  235  A    between atoms: _617  and  _618
REMARK  236  A    between atoms: _617  and  _620
REMARK  237  A    between atoms: _620  and  _621
REMARK  238  A    between atoms: _624  and  _626
REMARK  239  A    between atoms: _626  and  _627
REMARK  240  A    between atoms: _626  and  _629
REMARK  241  A    between atoms: _629  and  _630
REMARK  242  A    between atoms: _630  and  _631
REMARK                            x       y       z     vdW  Elec       q    Type
REMARK                         _______ _______ _______ _____ _____    ______ ____
ROOT
ATOM      1  CG  TRP A   1      -6.783  53.540  99.254  0.00  0.00    -0.002 A 
ATOM      2  CD1 TRP A   1      -6.097  53.083 100.340  0.00  0.00    +0.068 A 
ATOM      3  NE1 TRP A   1      -4.784  52.856 100.013  0.00  0.00    -0.352 N 
ATOM      4  HE1 TRP A   1      -4.052  52.505 100.663  0.00  0.00    +0.166 HD
ATOM      5  CE2 TRP A   1      -4.593  53.167  98.692  0.00  0.00    +0.056 A 
ATOM      6  CZ2 TRP A   1      -3.437  53.101  97.910  0.00  0.00    +0.017 A 
ATOM      7  CH2 TRP A   1      -3.535  53.484  96.600  0.00  0.00    +0.001 A 
ATOM      8  CZ3 TRP A   1      -4.763  53.927  96.055  0.00  0.00    +0.000 A 
ATOM      9  CE3 TRP A   1      -5.912  53.991  96.834  0.00  0.00    +0.001 A 
ATOM     10  CD2 TRP A   1      -5.834  53.605  98.179  0.00  0.00    +0.013 A 
ENDROOT
BRANCH   1  11
ATOM     11  CB  TRP A   1      -8.234  53.913  99.202  0.00  0.00    +0.053 C 
BRANCH  11  12
ATOM     12  CA  TRP A   1      -9.144  52.979 100.010  0.00  0.00    +0.137 C 
BRANCH  12  13
ATOM     13  N   TRP A   1      -8.856  51.601  99.651  0.00  0.00    -0.239 NA
ATOM     14  H   TRP A   1      -8.179  51.420  98.883  0.00  0.00    +0.142 HD
ENDBRANCH  12  13
BRANCH  12  15
ATOM     15  C   TRP A   1     -10.599  53.407  99.843  0.00  0.00    +0.224 C 
ATOM     16  O   TRP A   1     -11.132  54.123 100.688  0.00  0.00    -0.287 OA
ENDBRANCH  12  15
ENDBRANCH  11  12
ENDBRANCH   1  11
TORSDOF 4
REMARK  Name = ../refined-set-2016/1k1y/1k1y_pocket.pdb
REMARK  242 active torsions:
REMARK  status: ('A' for Active; 'I' for Inactive)
REMARK    1  A    between atoms: _1  and  _3
REMARK    2  A    between atoms: _3  and  _4
REMARK    3  A    between atoms: _3  and  _6
REMARK    4  A    between atoms: _6  and  _7
REMARK    5  A    between atoms: _12  and  _14
REMARK    6  A    between atoms: _14  and  _15
REMARK    7  A    between atoms: _14  and  _17
REMARK    8  A    between atoms: _17  and  _18
REMARK    9  A    between atoms: _23  and  _25
REMARK   10  A    between atoms: _25  and  _26
REMARK   11  A    between atoms: _25  and  _28
REMARK   12  A    between atoms: _28  and  _29
REMARK   13  A    between atoms: _34  and  _36
REMARK   14  A    between atoms: _36  and  _37
REMARK   15  A    between atoms: _36  and  _39
REMARK   16  A    between atoms: _39  and  _40
REMARK   17  A    between atoms: _40  and  _41
REMARK   18  A    between atoms: _47  and  _48
REMARK   19  A    between atoms: _53  and  _55
REMARK   20  A    between atoms: _55  and  _56
REMARK   21  A    between atoms: _55  and  _58
REMARK   22  A    between atoms: _58  and  _59
REMARK   23  A    between atoms: _64  and  _66
REMARK   24  A    between atoms: _66  and  _67
REMARK   25  A    between atoms: _66  and  _69
REMARK   26  A    between atoms: _69  and  _70
REMARK   27  A    between atoms: _75  and  _76
REMARK   28  A    between atoms: _78  and  _80
REMARK   29  A    between atoms: _80  and  _81
REMARK   30  A    between atoms: _80  and  _83
REMARK   31  A    between atoms: _83  and  _84
REMARK   32  A    between atoms: _89  and  _91
REMARK   33  A    between atoms: _91  and  _92
REMARK   34  A    between atoms: _91  and  _94
REMARK   35  A    between atoms: _94  and  _95
REMARK   36  A    between atoms: _95  and  _96
REMARK   37  A    between atoms: _99  and  _101
REMARK   38  A    between atoms: _101  and  _102
REMARK   39  A    between atoms: _101  and  _104
REMARK   40  A    between atoms: _104  and  _105
REMARK   41  A    between atoms: _115  and  _117
REMARK   42  A    between atoms: _117  and  _118
REMARK   43  A    between atoms: _117  and  _120
REMARK   44  A    between atoms: _120  and  _121
REMARK   45  A    between atoms: _124  and  _126
REMARK   46  A    between atoms: _126  and  _127
REMARK   47  A    between atoms: _126  and  _129
REMARK   48  A    between atoms: _129  and  _130
REMARK   49  A    between atoms: _133  and  _135
REMARK   50  A    between atoms: _135  and  _136
REMARK   51  A    between atoms: _135  and  _138
REMARK   52  A    between atoms: _138  and  _139
REMARK   53  A    between atoms: _139  and  _140
REMARK   54  A    between atoms: _143  and  _145
REMARK   55  A    between atoms: _145  and  _146
REMARK   56  A    between atoms: _145  and  _148
REMARK   57  A    between atoms: _148  and  _149
REMARK   58  A    between atoms: _149  and  _150
REMARK   59  A    between atoms: _150  and  _151
REMARK   60  A    between atoms: _160  and  _162
REMARK   61  A    between atoms: _162  and  _163
REMARK   62  A    between atoms: _162  and  _165
REMARK   63  A    between atoms: _165  and  _166
REMARK   64  A    between atoms: _169  and  _171
REMARK   65  A    between atoms: _171  and  _172
REMARK   66  A    between atoms: _171  and  _174
REMARK   67  A    between atoms: _174  and  _175
REMARK   68  A    between atoms: _178  and  _180
REMARK   69  A    between atoms: _180  and  _181
REMARK   70  A    between atoms: _180  and  _183
REMARK   71  A    between atoms: _183  and  _184
REMARK   72  A    between atoms: _187  and  _189
REMARK   73  A    between atoms: _189  and  _190
REMARK   74  A    between atoms: _189  and  _192
REMARK   75  A    between atoms: _192  and  _193
REMARK   76  A    between atoms: _193  and  _194
REMARK   77  A    between atoms: _197  and  _199
REMARK   78  A    between atoms: _199  and  _200
REMARK   79  A    between atoms: _199  and  _202
REMARK   80  A    between atoms: _202  and  _203
REMARK   81  A    between atoms: _203  and  _204
REMARK   82  A    between atoms: _204  and  _205
REMARK   83  A    between atoms: _205  and  _206
REMARK   84  A    between atoms: _210  and  _212
REMARK   85  A    between atoms: _212  and  _213
REMARK   86  A    between atoms: _212  and  _215
REMARK   87  A    between atoms: _215  and  _216
REMARK   88  A    between atoms: _219  and  _221
REMARK   89  A    between atoms: _221  and  _222
REMARK   90  A    between atoms: _221  and  _224
REMARK   91  A    between atoms: _224  and  _225
REMARK   92  A    between atoms: _225  and  _226
REMARK   93  A    between atoms: _226  and  _227
REMARK   94  A    between atoms: _236  and  _238
REMARK   95  A    between atoms: _238  and  _239
REMARK   96  A    between atoms: _238  and  _241
REMARK   97  A    between atoms: _241  and  _242
REMARK   98  A    between atoms: _247  and  _248
REMARK   99  A    between atoms: _250  and  _252
REMARK  100  A    between atoms: _252  and  _253
REMARK  101  A    between atoms: _252  and  _255
REMARK  102  A    between atoms: _255  and  _256
REMARK  103  A    between atoms: _259  and  _261
REMARK  104  A    between atoms: _261  and  _262
REMARK  105  A    between atoms: _261  and  _264
REMARK  106  A    between atoms: _264  and  _265
REMARK  107  A    between atoms: _269  and  _270
REMARK  108  A    between atoms: _275  and  _277
REMARK  109  A    between atoms: _277  and  _278
REMARK  110  A    between atoms: _277  and  _280
REMARK  111  A    between atoms: _280  and  _281
REMARK  112  A    between atoms: _287  and  _289
REMARK  113  A    between atoms: _289  and  _290
REMARK  114  A    between atoms: _289  and  _292
REMARK  115  A    between atoms: _292  and  _293
REMARK  116  A    between atoms: _293  and  _294
REMARK  117  A    between atoms: _294  and  _295
REMARK  118  A    between atoms: _304  and  _306
REMARK  119  A    between atoms: _306  and  _307
REMARK  120  A    between atoms: _306  and  _309
REMARK  121  A    between atoms: _309  and  _310
REMARK  122  A    between atoms: _316  and  _318
REMARK  123  A    between atoms: _318  and  _319
REMARK  124  A    between atoms: _318  and  _321
REMARK  125  A    between atoms: _321  and  _322
REMARK  126  A    between atoms: _327  and  _329
REMARK  127  A    between atoms: _329  and  _330
REMARK  128  A    between atoms: _329  and  _332
REMARK  129  A    between atoms: _332  and  _333
REMARK  130  A    between atoms: _336  and  _338
REMARK  131  A    between atoms: _338  and  _339
REMARK  132  A    between atoms: _338  and  _341
REMARK  133  A    between atoms: _341  and  _342
REMARK  134  A    between atoms: _345  and  _347
REMARK  135  A    between atoms: _347  and  _348
REMARK  136  A    between atoms: _350  and  _352
REMARK  137  A    between atoms: _352  and  _353
REMARK  138  A    between atoms: _352  and  _355
REMARK  139  A    between atoms: _355  and  _356
REMARK  140  A    between atoms: _356  and  _357
REMARK  141  A    between atoms: _360  and  _362
REMARK  142  A    between atoms: _362  and  _363
REMARK  143  A    between atoms: _362  and  _365
REMARK  144  A    between atoms: _365  and  _366
REMARK  145  A    between atoms: _366  and  _367
REMARK  146  A    between atoms: _367  and  _368
REMARK  147  A    between atoms: _368  and  _369
REMARK  148  A    between atoms: _373  and  _375
REMARK  149  A    between atoms: _375  and  _376
REMARK  150  A    between atoms: _375  and  _378
REMARK  151  A    between atoms: _378  and  _379
REMARK  152  A    between atoms: _390  and  _391
REMARK  153  A    between atoms: _396  and  _398
REMARK  154  A    between atoms: _398  and  _399
REMARK  155  A    between atoms: _401  and  _403
REMARK  156  A    between atoms: _403  and  _404
REMARK  157  A    between atoms: _403  and  _406
REMARK  158  A    between atoms: _406  and  _407
REMARK  159  A    between atoms: _410  and  _412
REMARK  160  A    between atoms: _412  and  _413
REMARK  161  A    between atoms: _412  and  _415
REMARK  162  A    between atoms: _415  and  _416
REMARK  163  A    between atoms: _418  and  _420
REMARK  164  A    between atoms: _420  and  _421
REMARK  165  A    between atoms: _420  and  _423
REMARK  166  A    between atoms: _423  and  _424
REMARK  167  A    between atoms: _429  and  _430
REMARK  168  A    between atoms: _432  and  _434
REMARK  169  A    between atoms: _434  and  _435
REMARK  170  A    between atoms: _434  and  _437
REMARK  171  A    between atoms: _437  and  _438
REMARK  172  A    between atoms: _444  and  _446
REMARK  173  A    between atoms: _446  and  _447
REMARK  174  A    between atoms: _446  and  _449
REMARK  175  A    between atoms: _449  and  _450
REMARK  176  A    between atoms: _450  and  _451
REMARK  177  A    between atoms: _454  and  _456
REMARK  178  A    between atoms: _456  and  _457
REMARK  179  A    between atoms: _456  and  _459
REMARK  180  A    between atoms: _459  and  _460
REMARK  181  A    between atoms: _460  and  _461
REMARK  182  A    between atoms: _463  and  _465
REMARK  183  A    between atoms: _465  and  _466
REMARK  184  A    between atoms: _465  and  _468
REMARK  185  A    between atoms: _468  and  _469
REMARK  186  A    between atoms: _479  and  _481
REMARK  187  A    between atoms: _481  and  _482
REMARK  188  A    between atoms: _481  and  _484
REMARK  189  A    between atoms: _484  and  _485
REMARK  190  A    between atoms: _495  and  _497
REMARK  191  A    between atoms: _497  and  _498
REMARK  192  A    between atoms: _497  and  _500
REMARK  193  A    between atoms: _500  and  _501
REMARK  194  A    between atoms: _506  and  _508
REMARK  195  A    between atoms: _508  and  _509
REMARK  196  A    between atoms: _508  and  _511
REMARK  197  A    between atoms: _511  and  _512
REMARK  198  A    between atoms: _515  and  _517
REMARK  199  A    between atoms: _517  and  _518
REMARK  200  A    between atoms: _521  and  _523
REMARK  201  A    between atoms: _523  and  _524
REMARK  202  A    between atoms: _523  and  _526
REMARK  203  A    between atoms: _526  and  _527
REMARK  204  A    between atoms: _532  and  _533
REMARK  205  A    between atoms: _535  and  _537
REMARK  206  A    between atoms: _537  and  _538
REMARK  207  A    between atoms: _537  and  _540
REMARK  208  A    between atoms: _540  and  _541
REMARK  209  A    between atoms: _551  and  _553
REMARK  210  A    between atoms: _553  and  _554
REMARK  211  A    between atoms: _553  and  _556
REMARK  212  A    between atoms: _556  and  _557
REMARK  213  A    between atoms: _562  and  _564
REMARK  214  A    between atoms: _564  and  _565
REMARK  215  A    between atoms: _567  and  _569
REMARK  216  A    between atoms: _569  and  _570
REMARK  217  A    between atoms: _569  and  _572
REMARK  218  A    between atoms: _575  and  _577
REMARK  219  A    between atoms: _577  and  _578
REMARK  220  A    between atoms: _577  and  _580
REMARK  221  A    between atoms: _580  and  _581
REMARK  222  A    between atoms: _587  and  _589
REMARK  223  A    between atoms: _589  and  _590
REMARK  224  A    between atoms: _592  and  _594
REMARK  225  A    between atoms: _594  and  _595
REMARK  226  A    between atoms: _597  and  _599
REMARK  227  A    between atoms: _599  and  _600
REMARK  228  A    between atoms: _599  and  _602
REMARK  229  A    between atoms: _602  and  _603
REMARK  230  A    between atoms: _606  and  _608
REMARK  231  A    between atoms: _608  and  _609
REMARK  232  A    between atoms: _608  and  _611
REMARK  233  A    between atoms: _611  and  _612
REMARK  234  A    between atoms: _615  and  _617
REMARK  235  A    between atoms: _617  and  _618
REMARK  236  A    between atoms: _617  and  _620
REMARK  237  A    between atoms: _620  and  _621
REMARK  238  A    between atoms: _624  and  _626
REMARK  239  A    between atoms: _626  and  _627
REMARK  240  A    between atoms: _626  and  _629
REMARK  241  A    between atoms: _629  and  _630
REMARK  242  A    between atoms: _630  and  _631
REMARK                            x       y       z     vdW  Elec       q    Type
REMARK                         _______ _______ _______ _____ _____    ______ ____
ROOT
ATOM      1  CG  TRP A   1     -12.644  56.770  92.598  0.00  0.00    -0.002 A 
ATOM      2  CD1 TRP A   1     -11.399  57.016  93.099  0.00  0.00    +0.068 A 
ATOM      3  NE1 TRP A   1     -11.186  58.371  93.188  0.00  0.00    -0.352 N 
ATOM      4  HE1 TRP A   1     -10.317  58.823  93.538  0.00  0.00    +0.166 HD
ATOM      5  CE2 TRP A   1     -12.301  59.031  92.742  0.00  0.00    +0.056 A 
ATOM      6  CZ2 TRP A   1     -12.560  60.407  92.644  0.00  0.00    +0.017 A 
ATOM      7  CH2 TRP A   1     -13.784  60.792  92.157  0.00  0.00    +0.001 A 
ATOM      8  CZ3 TRP A   1     -14.749  59.845  91.769  0.00  0.00    +0.000 A 
ATOM      9  CE3 TRP A   1     -14.488  58.467  91.866  0.00  0.00    +0.001 A 
ATOM     10  CD2 TRP A   1     -13.244  58.053  92.361  0.00  0.00    +0.013 A 
ENDROOT
BRANCH   1  11
ATOM     11  CB  TRP A   1     -13.288  55.419  92.386  0.00  0.00    +0.053 C 
BRANCH  11  12
ATOM     12  CA  TRP A   1     -14.030  54.921  93.634  0.00  0.00    +0.137 C 
BRANCH  12  13
ATOM     13  N   TRP A   1     -14.363  53.510  93.477  0.00  0.00    -0.239 NA
ATOM     14  H   TRP A   1     -14.016  53.005  92.637  0.00  0.00    +0.142 HD
ENDBRANCH  12  13
BRANCH  12  15
ATOM     15  C   TRP A   1     -15.176  55.887  93.958  0.00  0.00    +0.224 C 
ATOM     16  O   TRP A   1     -15.078  56.677  94.890  0.00  0.00    -0.287 OA
ENDBRANCH  12  15
ENDBRANCH  11  12
ENDBRANCH   1  11
TORSDOF 4
REMARK  Name = ../refined-set-2016/1k1y/1k1y_pocket.pdb
REMARK  242 active torsions:
REMARK  status: ('A' for Active; 'I' for Inactive)
REMARK    1  A    between atoms: _1  and  _3
REMARK    2  A    between atoms: _3  and  _4
REMARK    3  A    between atoms: _3  and  _6
REMARK    4  A    between atoms: _6  and  _7
REMARK    5  A    between atoms: _12  and  _14
REMARK    6  A    between atoms: _14  and  _15
REMARK    7  A    between atoms: _14  and  _17
REMARK    8  A    between atoms: _17  and  _18
REMARK    9  A    between atoms: _23  and  _25
REMARK   10  A    between atoms: _25  and  _26
REMARK   11  A    between atoms: _25  and  _28
REMARK   12  A    between atoms: _28  and  _29
REMARK   13  A    between atoms: _34  and  _36
REMARK   14  A    between atoms: _36  and  _37
REMARK   15  A    between atoms: _36  and  _39
REMARK   16  A    between atoms: _39  and  _40
REMARK   17  A    between atoms: _40  and  _41
REMARK   18  A    between atoms: _47  and  _48
REMARK   19  A    between atoms: _53  and  _55
REMARK   20  A    between atoms: _55  and  _56
REMARK   21  A    between atoms: _55  and  _58
REMARK   22  A    between atoms: _58  and  _59
REMARK   23  A    between atoms: _64  and  _66
REMARK   24  A    between atoms: _66  and  _67
REMARK   25  A    between atoms: _66  and  _69
REMARK   26  A    between atoms: _69  and  _70
REMARK   27  A    between atoms: _75  and  _76
REMARK   28  A    between atoms: _78  and  _80
REMARK   29  A    between atoms: _80  and  _81
REMARK   30  A    between atoms: _80  and  _83
REMARK   31  A    between atoms: _83  and  _84
REMARK   32  A    between atoms: _89  and  _91
REMARK   33  A    between atoms: _91  and  _92
REMARK   34  A    between atoms: _91  and  _94
REMARK   35  A    between atoms: _94  and  _95
REMARK   36  A    between atoms: _95  and  _96
REMARK   37  A    between atoms: _99  and  _101
REMARK   38  A    between atoms: _101  and  _102
REMARK   39  A    between atoms: _101  and  _104
REMARK   40  A    between atoms: _104  and  _105
REMARK   41  A    between atoms: _115  and  _117
REMARK   42  A    between atoms: _117  and  _118
REMARK   43  A    between atoms: _117  and  _120
REMARK   44  A    between atoms: _120  and  _121
REMARK   45  A    between atoms: _124  and  _126
REMARK   46  A    between atoms: _126  and  _127
REMARK   47  A    between atoms: _126  and  _129
REMARK   48  A    between atoms: _129  and  _130
REMARK   49  A    between atoms: _133  and  _135
REMARK   50  A    between atoms: _135  and  _136
REMARK   51  A    between atoms: _135  and  _138
REMARK   52  A    between atoms: _138  and  _139
REMARK   53  A    between atoms: _139  and  _140
REMARK   54  A    between atoms: _143  and  _145
REMARK   55  A    between atoms: _145  and  _146
REMARK   56  A    between atoms: _145  and  _148
REMARK   57  A    between atoms: _148  and  _149
REMARK   58  A    between atoms: _149  and  _150
REMARK   59  A    between atoms: _150  and  _151
REMARK   60  A    between atoms: _160  and  _162
REMARK   61  A    between atoms: _162  and  _163
REMARK   62  A    between atoms: _162  and  _165
REMARK   63  A    between atoms: _165  and  _166
REMARK   64  A    between atoms: _169  and  _171
REMARK   65  A    between atoms: _171  and  _172
REMARK   66  A    between atoms: _171  and  _174
REMARK   67  A    between atoms: _174  and  _175
REMARK   68  A    between atoms: _178  and  _180
REMARK   69  A    between atoms: _180  and  _181
REMARK   70  A    between atoms: _180  and  _183
REMARK   71  A    between atoms: _183  and  _184
REMARK   72  A    between atoms: _187  and  _189
REMARK   73  A    between atoms: _189  and  _190
REMARK   74  A    between atoms: _189  and  _192
REMARK   75  A    between atoms: _192  and  _193
REMARK   76  A    between atoms: _193  and  _194
REMARK   77  A    between atoms: _197  and  _199
REMARK   78  A    between atoms: _199  and  _200
REMARK   79  A    between atoms: _199  and  _202
REMARK   80  A    between atoms: _202  and  _203
REMARK   81  A    between atoms: _203  and  _204
REMARK   82  A    between atoms: _204  and  _205
REMARK   83  A    between atoms: _205  and  _206
REMARK   84  A    between atoms: _210  and  _212
REMARK   85  A    between atoms: _212  and  _213
REMARK   86  A    between atoms: _212  and  _215
REMARK   87  A    between atoms: _215  and  _216
REMARK   88  A    between atoms: _219  and  _221
REMARK   89  A    between atoms: _221  and  _222
REMARK   90  A    between atoms: _221  and  _224
REMARK   91  A    between atoms: _224  and  _225
REMARK   92  A    between atoms: _225  and  _226
REMARK   93  A    between atoms: _226  and  _227
REMARK   94  A    between atoms: _236  and  _238
REMARK   95  A    between atoms: _238  and  _239
REMARK   96  A    between atoms: _238  and  _241
REMARK   97  A    between atoms: _241  and  _242
REMARK   98  A    between atoms: _247  and  _248
REMARK   99  A    between atoms: _250  and  _252
REMARK  100  A    between atoms: _252  and  _253
REMARK  101  A    between atoms: _252  and  _255
REMARK  102  A    between atoms: _255  and  _256
REMARK  103  A    between atoms: _259  and  _261
REMARK  104  A    between atoms: _261  and  _262
REMARK  105  A    between atoms: _261  and  _264
REMARK  106  A    between atoms: _264  and  _265
REMARK  107  A    between atoms: _269  and  _270
REMARK  108  A    between atoms: _275  and  _277
REMARK  109  A    between atoms: _277  and  _278
REMARK  110  A    between atoms: _277  and  _280
REMARK  111  A    between atoms: _280  and  _281
REMARK  112  A    between atoms: _287  and  _289
REMARK  113  A    between atoms: _289  and  _290
REMARK  114  A    between atoms: _289  and  _292
REMARK  115  A    between atoms: _292  and  _293
REMARK  116  A    between atoms: _293  and  _294
REMARK  117  A    between atoms: _294  and  _295
REMARK  118  A    between atoms: _304  and  _306
REMARK  119  A    between atoms: _306  and  _307
REMARK  120  A    between atoms: _306  and  _309
REMARK  121  A    between atoms: _309  and  _310
REMARK  122  A    between atoms: _316  and  _318
REMARK  123  A    between atoms: _318  and  _319
REMARK  124  A    between atoms: _318  and  _321
REMARK  125  A    between atoms: _321  and  _322
REMARK  126  A    between atoms: _327  and  _329
REMARK  127  A    between atoms: _329  and  _330
REMARK  128  A    between atoms: _329  and  _332
REMARK  129  A    between atoms: _332  and  _333
REMARK  130  A    between atoms: _336  and  _338
REMARK  131  A    between atoms: _338  and  _339
REMARK  132  A    between atoms: _338  and  _341
REMARK  133  A    between atoms: _341  and  _342
REMARK  134  A    between atoms: _345  and  _347
REMARK  135  A    between atoms: _347  and  _348
REMARK  136  A    between atoms: _350  and  _352
REMARK  137  A    between atoms: _352  and  _353
REMARK  138  A    between atoms: _352  and  _355
REMARK  139  A    between atoms: _355  and  _356
REMARK  140  A    between atoms: _356  and  _357
REMARK  141  A    between atoms: _360  and  _362
REMARK  142  A    between atoms: _362  and  _363
REMARK  143  A    between atoms: _362  and  _365
REMARK  144  A    between atoms: _365  and  _366
REMARK  145  A    between atoms: _366  and  _367
REMARK  146  A    between atoms: _367  and  _368
REMARK  147  A    between atoms: _368  and  _369
REMARK  148  A    between atoms: _373  and  _375
REMARK  149  A    between atoms: _375  and  _376
REMARK  150  A    between atoms: _375  and  _378
REMARK  151  A    between atoms: _378  and  _379
REMARK  152  A    between atoms: _390  and  _391
REMARK  153  A    between atoms: _396  and  _398
REMARK  154  A    between atoms: _398  and  _399
REMARK  155  A    between atoms: _401  and  _403
REMARK  156  A    between atoms: _403  and  _404
REMARK  157  A    between atoms: _403  and  _406
REMARK  158  A    between atoms: _406  and  _407
REMARK  159  A    between atoms: _410  and  _412
REMARK  160  A    between atoms: _412  and  _413
REMARK  161  A    between atoms: _412  and  _415
REMARK  162  A    between atoms: _415  and  _416
REMARK  163  A    between atoms: _418  and  _420
REMARK  164  A    between atoms: _420  and  _421
REMARK  165  A    between atoms: _420  and  _423
REMARK  166  A    between atoms: _423  and  _424
REMARK  167  A    between atoms: _429  and  _430
REMARK  168  A    between atoms: _432  and  _434
REMARK  169  A    between atoms: _434  and  _435
REMARK  170  A    between atoms: _434  and  _437
REMARK  171  A    between atoms: _437  and  _438
REMARK  172  A    between atoms: _444  and  _446
REMARK  173  A    between atoms: _446  and  _447
REMARK  174  A    between atoms: _446  and  _449
REMARK  175  A    between atoms: _449  and  _450
REMARK  176  A    between atoms: _450  and  _451
REMARK  177  A    between atoms: _454  and  _456
REMARK  178  A    between atoms: _456  and  _457
REMARK  179  A    between atoms: _456  and  _459
REMARK  180  A    between atoms: _459  and  _460
REMARK  181  A    between atoms: _460  and  _461
REMARK  182  A    between atoms: _463  and  _465
REMARK  183  A    between atoms: _465  and  _466
REMARK  184  A    between atoms: _465  and  _468
REMARK  185  A    between atoms: _468  and  _469
REMARK  186  A    between atoms: _479  and  _481
REMARK  187  A    between atoms: _481  and  _482
REMARK  188  A    between atoms: _481  and  _484
REMARK  189  A    between atoms: _484  and  _485
REMARK  190  A    between atoms: _495  and  _497
REMARK  191  A    between atoms: _497  and  _498
REMARK  192  A    between atoms: _497  and  _500
REMARK  193  A    between atoms: _500  and  _501
REMARK  194  A    between atoms: _506  and  _508
REMARK  195  A    between atoms: _508  and  _509
REMARK  196  A    between atoms: _508  and  _511
REMARK  197  A    between atoms: _511  and  _512
REMARK  198  A    between atoms: _515  and  _517
REMARK  199  A    between atoms: _517  and  _518
REMARK  200  A    between atoms: _521  and  _523
REMARK  201  A    between atoms: _523  and  _524
REMARK  202  A    between atoms: _523  and  _526
REMARK  203  A    between atoms: _526  and  _527
REMARK  204  A    between atoms: _532  and  _533
REMARK  205  A    between atoms: _535  and  _537
REMARK  206  A    between atoms: _537  and  _538
REMARK  207  A    between atoms: _537  and  _540
REMARK  208  A    between atoms: _540  and  _541
REMARK  209  A    between atoms: _551  and  _553
REMARK  210  A    between atoms: _553  and  _554
REMARK  211  A    between atoms: _553  and  _556
REMARK  212  A    between atoms: _556  and  _557
REMARK  213  A    between atoms: _562  and  _564
REMARK  214  A    between atoms: _564  and  _565
REMARK  215  A    between atoms: _567  and  _569
REMARK  216  A    between atoms: _569  and  _570
REMARK  217  A    between atoms: _569  and  _572
REMARK  218  A    between atoms: _575  and  _577
REMARK  219  A    between atoms: _577  and  _578
REMARK  220  A    between atoms: _577  and  _580
REMARK  221  A    between atoms: _580  and  _581
REMARK  222  A    between atoms: _587  and  _589
REMARK  223  A    between atoms: _589  and  _590
REMARK  224  A    between atoms: _592  and  _594
REMARK  225  A    between atoms: _594  and  _595
REMARK  226  A    between atoms: _597  and  _599
REMARK  227  A    between atoms: _599  and  _600
REMARK  228  A    between atoms: _599  and  _602
REMARK  229  A    between atoms: _602  and  _603
REMARK  230  A    between atoms: _606  and  _608
REMARK  231  A    between atoms: _608  and  _609
REMARK  232  A    between atoms: _608  and  _611
REMARK  233  A    between atoms: _611  and  _612
REMARK  234  A    between atoms: _615  and  _617
REMARK  235  A    between atoms: _617  and  _618
REMARK  236  A    between atoms: _617  and  _620
REMARK  237  A    between atoms: _620  and  _621
REMARK  238  A    between atoms: _624  and  _626
REMARK  239  A    between atoms: _626  and  _627
REMARK  240  A    between atoms: _626  and  _629
REMARK  241  A    between atoms: _629  and  _630
REMARK  242  A    between atoms: _630  and  _631
REMARK                            x       y       z     vdW  Elec       q    Type
REMARK                         _______ _______ _______ _____ _____    ______ ____
ROOT
ATOM      1  C   TRP A   5      -9.344  61.197  98.259  0.00  0.00    +0.241 C 
ATOM      2  N   HIS A   6      -9.159  60.082  98.949  0.00  0.00    -0.297 N 
ATOM      3  H   HIS A   6      -9.858  59.315  98.883  0.00  0.00    +0.150 HD
ATOM      4  O   TRP A   5      -8.533  62.120  98.265  0.00  0.00    -0.273 OA
ENDROOT
BRANCH   2   5
ATOM      5  CA  HIS A   6      -7.990  59.918  99.798  0.00  0.00    +0.155 C 
BRANCH   5   6
ATOM      6  C   HIS A   6      -7.513  58.474  99.804  0.00  0.00    +0.241 C 
ATOM      7  O   HIS A   6      -8.268  57.568 100.136  0.00  0.00    -0.273 OA
ATOM      8  N   GLY A   7      -6.259  58.275  99.414  0.00  0.00    -0.295 N 
ATOM      9  H   GLY A   7      -5.682  59.086  99.112  0.00  0.00    +0.150 HD
BRANCH   8  10
ATOM     10  CA  GLY A   7      -5.682  56.948  99.402  0.00  0.00    +0.176 C 
BRANCH  10  11
ATOM     11  C   GLY A   7      -4.889  56.746 100.682  0.00  0.00    +0.243 C 
ATOM     12  O   GLY A   7      -5.461  56.599 101.763  0.00  0.00    -0.273 OA
ATOM     13  N   VAL A   8      -3.567  56.758 100.571  0.00  0.00    -0.297 N 
ATOM     14  H   VAL A   8      -3.134  56.903  99.637  0.00  0.00    +0.150 HD
BRANCH  13  15
ATOM     15  CA  VAL A   8      -2.711  56.571 101.736  0.00  0.00    +0.149 C 
BRANCH  15  16
ATOM     16  C   VAL A   8      -2.274  57.924 102.291  0.00  0.00    +0.241 C 
ATOM     17  O   VAL A   8      -1.932  58.052 103.470  0.00  0.00    -0.273 OA
ATOM     18  N   PHE A   9      -2.312  58.935 101.427  0.00  0.00    -0.297 N 
ATOM     19  H   PHE A   9      -2.637  58.754 100.456  0.00  0.00    +0.150 HD
BRANCH  18  20
ATOM     20  CA  PHE A   9      -1.913  60.288 101.797  0.00  0.00    +0.153 C 
BRANCH  20  21
ATOM     21  C   PHE A   9      -2.496  61.352 100.869  0.00  0.00    +0.241 C 
ATOM     22  N   GLY A  10      -2.613  62.560 101.412  0.00  0.00    -0.295 N 
ATOM     23  H   GLY A  10      -2.355  62.686 102.411  0.00  0.00    +0.150 HD
ATOM     24  O   PHE A   9      -2.823  61.084  99.710  0.00  0.00    -0.273 OA
BRANCH  22  25
ATOM     25  CA  GLY A  10      -3.087  63.708 100.663  0.00  0.00    +0.176 C 
BRANCH  25  26
ATOM     26  C   GLY A  10      -4.516  63.697 100.190  0.00  0.00    +0.243 C 
ATOM     27  O   GLY A  10      -5.437  63.354 100.932  0.00  0.00    -0.273 OA
ATOM     28  N   GLY A  11      -4.697  64.095  98.937  0.00  0.00    -0.295 N 
ATOM     29  H   GLY A  11      -3.877  64.372  98.360  0.00  0.00    +0.150 HD
BRANCH  28  30
ATOM     30  CA  GLY A  11      -6.026  64.147  98.368  0.00  0.00    +0.176 C 
BRANCH  30  31
ATOM     31  C   GLY A  11      -6.913  65.176  99.048  0.00  0.00    +0.243 C 
ATOM     32  N   ILE A  12      -8.142  64.776  99.340  0.00  0.00    -0.298 N 
ATOM     33  H   ILE A  12      -8.436  63.805  99.113  0.00  0.00    +0.150 HD
ATOM     34  O   GLY A  11      -6.499  66.308  99.321  0.00  0.00    -0.273 OA
BRANCH  32  35
ATOM     35  CA  ILE A  12      -9.080  65.682  99.974  0.00  0.00    +0.137 C 
BRANCH  35  36
ATOM     36  C   ILE A  12      -8.562  66.276 101.289  0.00  0.00    +0.227 C 
ATOM     37  O   ILE A  12      -9.074  67.301 101.750  0.00  0.00    -0.286 OA
ENDBRANCH  35  36
BRANCH  35  38
ATOM     38  CB  ILE A  12     -10.433  64.979 100.224  0.00  0.00    +0.026 C 
ATOM     39  CG2 ILE A  12     -10.270  63.877 101.263  0.00  0.00    +0.002 C 
BRANCH  38  40
ATOM     40  CG1 ILE A  12     -11.471  66.006 100.671  0.00  0.00    +0.002 C 
ATOM     41  CD1 ILE A  12     -12.833  65.421 100.875  0.00  0.00    +0.000 C 
ENDBRANCH  38  40
ENDBRANCH  35  38
ENDBRANCH  32  35
ENDBRANCH  30  31
ENDBRANCH  28  30
ENDBRANCH  25  26
ENDBRANCH  22  25
ENDBRANCH  20  21
BRANCH  20  42
ATOM     42  CB  PHE A   9      -0.382  60.406 101.769  0.00  0.00    +0.055 C 
BRANCH  42  43
ATOM     43  CG  PHE A   9       0.122  61.829 101.780  0.00  0.00    -0.020 A 
ATOM     44  CD2 PHE A   9       0.266  62.528 102.979  0.00  0.00    -0.004 A 
ATOM     45  CE2 PHE A   9       0.694  63.857 102.985  0.00  0.00    -0.000 A 
ATOM     46  CZ  PHE A   9       0.980  64.499 101.782  0.00  0.00    -0.000 A 
ATOM     47  CE1 PHE A   9       0.840  63.811 100.579  0.00  0.00    -0.000 A 
ATOM     48  CD1 PHE A   9       0.414  62.485 100.584  0.00  0.00    -0.004 A 
ENDBRANCH  42  43
ENDBRANCH  20  42
ENDBRANCH  18  20
ENDBRANCH  15  16
BRANCH  15  49
ATOM     49  CB  VAL A   8      -1.464  55.736 101.364  0.00  0.00    +0.027 C 
ATOM     50  CG2 VAL A   8      -0.586  55.539 102.585  0.00  0.00    +0.002 C 
ATOM     51  CG1 VAL A   8      -0.695  56.420 100.250  0.00  0.00    +0.002 C 
ENDBRANCH  15  49
ENDBRANCH  13  15
ENDBRANCH  10  11
ENDBRANCH   8  10
ENDBRANCH   5   6
BRANCH   5  52
ATOM     52  CB  HIS A   6      -8.331  60.370 101.227  0.00  0.00    +0.076 C 
BRANCH  52  53
ATOM     53  CG  HIS A   6      -7.229  60.146 102.219  0.00  0.00    +0.082 A 
ATOM     54  CD2 HIS A   6      -7.195  59.427 103.367  0.00  0.00    +0.115 A 
ATOM     55  NE2 HIS A   6      -5.939  59.582 103.906  0.00  0.00    -0.221 NA
ATOM     56  CE1 HIS A   6      -5.228  60.366 103.118  0.00  0.00    +0.199 A 
ATOM     57  ND1 HIS A   6      -5.982  60.720 102.093  0.00  0.00    -0.227 NA
ENDBRANCH  52  53
ENDBRANCH   5  52
ENDBRANCH   2   5
BRANCH   1  58
ATOM     58  CA  TRP A   5     -10.619  61.273  97.438  0.00  0.00    +0.153 C 
BRANCH  58  61
ATOM     59  C   TYR A   4     -12.016  63.068  96.605  0.00  0.00    +0.241 C 
ATOM     60  O   TYR A   4     -13.035  62.509  97.023  0.00  0.00    -0.273 OA
ATOM     61  N   TRP A   5     -10.797  62.551  96.761  0.00  0.00    -0.297 N 
ATOM     62  H   TRP A   5      -9.968  63.063  96.397  0.00  0.00    +0.150 HD
BRANCH  59  63
ATOM     63  CA  TYR A   4     -12.126  64.403  95.866  0.00  0.00    +0.153 C 
BRANCH  63  66
ATOM     64  C   ALA A   3     -10.333  65.906  96.522  0.00  0.00    +0.241 C 
ATOM     65  O   ALA A   3     -10.848  66.089  97.623  0.00  0.00    -0.273 OA
ATOM     66  N   TYR A   4     -10.868  65.099  95.613  0.00  0.00    -0.297 N 
ATOM     67  H   TYR A   4     -10.382  64.960  94.704  0.00  0.00    +0.150 HD
BRANCH  64  68
ATOM     68  CA  ALA A   3      -9.027  66.604  96.160  0.00  0.00    +0.149 C 
ATOM     69  CB  ALA A   3      -9.255  68.115  96.077  0.00  0.00    +0.031 C 
BRANCH  68  72
ATOM     70  C   ASP A   2      -7.860  64.915  94.859  0.00  0.00    +0.241 C 
ATOM     71  O   ASP A   2      -7.894  64.124  95.807  0.00  0.00    -0.273 OA
ATOM     72  N   ALA A   3      -8.398  66.127  94.930  0.00  0.00    -0.297 N 
ATOM     73  H   ALA A   3      -8.371  66.748  94.096  0.00  0.00    +0.150 HD
BRANCH  70  74
ATOM     74  CA  ASP A   2      -7.195  64.508  93.540  0.00  0.00    +0.160 C 
BRANCH  74  77
ATOM     75  C   ASN A   1      -9.197  64.368  92.160  0.00  0.00    +0.239 C 
ATOM     76  O   ASN A   1      -9.883  63.988  93.105  0.00  0.00    -0.274 OA
ATOM     77  N   ASP A   2      -7.916  64.677  92.285  0.00  0.00    -0.297 N 
ATOM     78  H   ASP A   2      -7.407  65.053  91.460  0.00  0.00    +0.150 HD
BRANCH  75  79
ATOM     79  CA  ASN A   1      -9.813  64.491  90.770  0.00  0.00    +0.154 C 
BRANCH  79  80
ATOM     80  N   ASN A   1      -9.460  65.552  89.823  0.00  0.00    -0.238 NA
ATOM     81  H   ASN A   1      -9.087  65.263  88.896  0.00  0.00    +0.142 HD
ENDBRANCH  79  80
BRANCH  79  82
ATOM     82  CB  ASN A   1      -9.646  63.137  90.063  0.00  0.00    +0.111 C 
BRANCH  82  83
ATOM     83  CG  ASN A   1      -8.222  62.607  90.142  0.00  0.00    +0.221 C 
ATOM     84  OD1 ASN A   1      -7.809  62.040  91.157  0.00  0.00    -0.275 OA
ATOM     85  ND2 ASN A   1      -7.460  62.804  89.078  0.00  0.00    -0.329 N 
ATOM     86 HD21 ASN A   1      -6.473  62.476  89.077  0.00  0.00    +0.145 HD
ATOM     87 HD22 ASN A   1      -7.848  63.287  88.243  0.00  0.00    +0.145 HD
ENDBRANCH  82  83
ENDBRANCH  79  82
ENDBRANCH  75  79
ENDBRANCH  74  77
BRANCH  74  88
ATOM     88  CB  ASP A   2      -5.824  65.167  93.396  0.00  0.00    +0.143 C 
BRANCH  88  89
ATOM     89  CG  ASP A   2      -5.048  64.622  92.205  0.00  0.00    +0.367 C 
ATOM     90  OD2 ASP A   2      -4.186  63.740  92.394  0.00  0.00    -0.246 OA
ATOM     91  OD1 ASP A   2      -5.318  65.057  91.070  0.00  0.00    -0.246 OA
ENDBRANCH  88  89
ENDBRANCH  74  88
ENDBRANCH  70  74
ENDBRANCH  68  72
ENDBRANCH  64  68
ENDBRANCH  63  66
BRANCH  63  92
ATOM     92  CB  TYR A   4     -12.873  64.164  94.552  0.00  0.00    +0.055 C 
BRANCH  92  93
ATOM     93  CG  TYR A   4     -13.370  65.413  93.888  0.00  0.00    -0.020 A 
ATOM     94  CD2 TYR A   4     -14.638  65.926  94.179  0.00  0.00    -0.001 A 
ATOM     95  CE2 TYR A   4     -15.129  67.051  93.519  0.00  0.00    +0.036 A 
ATOM     96  CZ  TYR A   4     -14.345  67.666  92.551  0.00  0.00    +0.134 A 
ATOM     97  CE1 TYR A   4     -13.083  67.180  92.258  0.00  0.00    +0.036 A 
ATOM     98  CD1 TYR A   4     -12.600  66.059  92.931  0.00  0.00    -0.001 A 
BRANCH  96  99
ATOM     99  OH  TYR A   4     -14.830  68.723  91.824  0.00  0.00    -0.506 OA
ATOM    100  HH  TYR A   4     -14.137  69.030  91.187  0.00  0.00    +0.292 HD
ENDBRANCH  96  99
ENDBRANCH  92  93
ENDBRANCH  63  92
ENDBRANCH  59  63
ENDBRANCH  58  61
BRANCH  58 101
ATOM    101  CB  TRP A   5     -10.639  60.126  96.421  0.00  0.00    +0.057 C 
BRANCH 101 102
ATOM    102  CG  TRP A   5      -9.493  60.154  95.470  0.00  0.00    -0.002 A 
ATOM    103  CD2 TRP A   5      -8.378  59.262  95.452  0.00  0.00    +0.013 A 
ATOM    104  CE3 TRP A   5      -8.005  58.156  96.225  0.00  0.00    +0.001 A 
ATOM    105  CZ3 TRP A   5      -6.815  57.498  95.920  0.00  0.00    +0.000 A 
ATOM    106  CH2 TRP A   5      -6.000  57.926  94.861  0.00  0.00    +0.001 A 
ATOM    107  CZ2 TRP A   5      -6.342  59.005  94.087  0.00  0.00    +0.017 A 
ATOM    108  CE2 TRP A   5      -7.537  59.668  94.394  0.00  0.00    +0.056 A 
ATOM    109  NE1 TRP A   5      -8.122  60.758  93.802  0.00  0.00    -0.352 N 
ATOM    110  HE1 TRP A   5      -7.739  61.284  92.991  0.00  0.00    +0.166 HD
ATOM    111  CD1 TRP A   5      -9.292  61.041  94.453  0.00  0.00    +0.068 A 
ENDBRANCH 101 102
ENDBRANCH  58 101
ENDBRANCH   1  58
TORSDOF 40
REMARK  Name = ../refined-set-2016/1k1y/1k1y_pocket.pdb
REMARK  242 active torsions:
REMARK  status: ('A' for Active; 'I' for Inactive)
REMARK    1  A    between atoms: _1  and  _3
REMARK    2  A    between atoms: _3  and  _4
REMARK    3  A    between atoms: _3  and  _6
REMARK    4  A    between atoms: _6  and  _7
REMARK    5  A    between atoms: _12  and  _14
REMARK    6  A    between atoms: _14  and  _15
REMARK    7  A    between atoms: _14  and  _17
REMARK    8  A    between atoms: _17  and  _18
REMARK    9  A    between atoms: _23  and  _25
REMARK   10  A    between atoms: _25  and  _26
REMARK   11  A    between atoms: _25  and  _28
REMARK   12  A    between atoms: _28  and  _29
REMARK   13  A    between atoms: _34  and  _36
REMARK   14  A    between atoms: _36  and  _37
REMARK   15  A    between atoms: _36  and  _39
REMARK   16  A    between atoms: _39  and  _40
REMARK   17  A    between atoms: _40  and  _41
REMARK   18  A    between atoms: _47  and  _48
REMARK   19  A    between atoms: _53  and  _55
REMARK   20  A    between atoms: _55  and  _56
REMARK   21  A    between atoms: _55  and  _58
REMARK   22  A    between atoms: _58  and  _59
REMARK   23  A    between atoms: _64  and  _66
REMARK   24  A    between atoms: _66  and  _67
REMARK   25  A    between atoms: _66  and  _69
REMARK   26  A    between atoms: _69  and  _70
REMARK   27  A    between atoms: _75  and  _76
REMARK   28  A    between atoms: _78  and  _80
REMARK   29  A    between atoms: _80  and  _81
REMARK   30  A    between atoms: _80  and  _83
REMARK   31  A    between atoms: _83  and  _84
REMARK   32  A    between atoms: _89  and  _91
REMARK   33  A    between atoms: _91  and  _92
REMARK   34  A    between atoms: _91  and  _94
REMARK   35  A    between atoms: _94  and  _95
REMARK   36  A    between atoms: _95  and  _96
REMARK   37  A    between atoms: _99  and  _101
REMARK   38  A    between atoms: _101  and  _102
REMARK   39  A    between atoms: _101  and  _104
REMARK   40  A    between atoms: _104  and  _105
REMARK   41  A    between atoms: _115  and  _117
REMARK   42  A    between atoms: _117  and  _118
REMARK   43  A    between atoms: _117  and  _120
REMARK   44  A    between atoms: _120  and  _121
REMARK   45  A    between atoms: _124  and  _126
REMARK   46  A    between atoms: _126  and  _127
REMARK   47  A    between atoms: _126  and  _129
REMARK   48  A    between atoms: _129  and  _130
REMARK   49  A    between atoms: _133  and  _135
REMARK   50  A    between atoms: _135  and  _136
REMARK   51  A    between atoms: _135  and  _138
REMARK   52  A    between atoms: _138  and  _139
REMARK   53  A    between atoms: _139  and  _140
REMARK   54  A    between atoms: _143  and  _145
REMARK   55  A    between atoms: _145  and  _146
REMARK   56  A    between atoms: _145  and  _148
REMARK   57  A    between atoms: _148  and  _149
REMARK   58  A    between atoms: _149  and  _150
REMARK   59  A    between atoms: _150  and  _151
REMARK   60  A    between atoms: _160  and  _162
REMARK   61  A    between atoms: _162  and  _163
REMARK   62  A    between atoms: _162  and  _165
REMARK   63  A    between atoms: _165  and  _166
REMARK   64  A    between atoms: _169  and  _171
REMARK   65  A    between atoms: _171  and  _172
REMARK   66  A    between atoms: _171  and  _174
REMARK   67  A    between atoms: _174  and  _175
REMARK   68  A    between atoms: _178  and  _180
REMARK   69  A    between atoms: _180  and  _181
REMARK   70  A    between atoms: _180  and  _183
REMARK   71  A    between atoms: _183  and  _184
REMARK   72  A    between atoms: _187  and  _189
REMARK   73  A    between atoms: _189  and  _190
REMARK   74  A    between atoms: _189  and  _192
REMARK   75  A    between atoms: _192  and  _193
REMARK   76  A    between atoms: _193  and  _194
REMARK   77  A    between atoms: _197  and  _199
REMARK   78  A    between atoms: _199  and  _200
REMARK   79  A    between atoms: _199  and  _202
REMARK   80  A    between atoms: _202  and  _203
REMARK   81  A    between atoms: _203  and  _204
REMARK   82  A    between atoms: _204  and  _205
REMARK   83  A    between atoms: _205  and  _206
REMARK   84  A    between atoms: _210  and  _212
REMARK   85  A    between atoms: _212  and  _213
REMARK   86  A    between atoms: _212  and  _215
REMARK   87  A    between atoms: _215  and  _216
REMARK   88  A    between atoms: _219  and  _221
REMARK   89  A    between atoms: _221  and  _222
REMARK   90  A    between atoms: _221  and  _224
REMARK   91  A    between atoms: _224  and  _225
REMARK   92  A    between atoms: _225  and  _226
REMARK   93  A    between atoms: _226  and  _227
REMARK   94  A    between atoms: _236  and  _238
REMARK   95  A    between atoms: _238  and  _239
REMARK   96  A    between atoms: _238  and  _241
REMARK   97  A    between atoms: _241  and  _242
REMARK   98  A    between atoms: _247  and  _248
REMARK   99  A    between atoms: _250  and  _252
REMARK  100  A    between atoms: _252  and  _253
REMARK  101  A    between atoms: _252  and  _255
REMARK  102  A    between atoms: _255  and  _256
REMARK  103  A    between atoms: _259  and  _261
REMARK  104  A    between atoms: _261  and  _262
REMARK  105  A    between atoms: _261  and  _264
REMARK  106  A    between atoms: _264  and  _265
REMARK  107  A    between atoms: _269  and  _270
REMARK  108  A    between atoms: _275  and  _277
REMARK  109  A    between atoms: _277  and  _278
REMARK  110  A    between atoms: _277  and  _280
REMARK  111  A    between atoms: _280  and  _281
REMARK  112  A    between atoms: _287  and  _289
REMARK  113  A    between atoms: _289  and  _290
REMARK  114  A    between atoms: _289  and  _292
REMARK  115  A    between atoms: _292  and  _293
REMARK  116  A    between atoms: _293  and  _294
REMARK  117  A    between atoms: _294  and  _295
REMARK  118  A    between atoms: _304  and  _306
REMARK  119  A    between atoms: _306  and  _307
REMARK  120  A    between atoms: _306  and  _309
REMARK  121  A    between atoms: _309  and  _310
REMARK  122  A    between atoms: _316  and  _318
REMARK  123  A    between atoms: _318  and  _319
REMARK  124  A    between atoms: _318  and  _321
REMARK  125  A    between atoms: _321  and  _322
REMARK  126  A    between atoms: _327  and  _329
REMARK  127  A    between atoms: _329  and  _330
REMARK  128  A    between atoms: _329  and  _332
REMARK  129  A    between atoms: _332  and  _333
REMARK  130  A    between atoms: _336  and  _338
REMARK  131  A    between atoms: _338  and  _339
REMARK  132  A    between atoms: _338  and  _341
REMARK  133  A    between atoms: _341  and  _342
REMARK  134  A    between atoms: _345  and  _347
REMARK  135  A    between atoms: _347  and  _348
REMARK  136  A    between atoms: _350  and  _352
REMARK  137  A    between atoms: _352  and  _353
REMARK  138  A    between atoms: _352  and  _355
REMARK  139  A    between atoms: _355  and  _356
REMARK  140  A    between atoms: _356  and  _357
REMARK  141  A    between atoms: _360  and  _362
REMARK  142  A    between atoms: _362  and  _363
REMARK  143  A    between atoms: _362  and  _365
REMARK  144  A    between atoms: _365  and  _366
REMARK  145  A    between atoms: _366  and  _367
REMARK  146  A    between atoms: _367  and  _368
REMARK  147  A    between atoms: _368  and  _369
REMARK  148  A    between atoms: _373  and  _375
REMARK  149  A    between atoms: _375  and  _376
REMARK  150  A    between atoms: _375  and  _378
REMARK  151  A    between atoms: _378  and  _379
REMARK  152  A    between atoms: _390  and  _391
REMARK  153  A    between atoms: _396  and  _398
REMARK  154  A    between atoms: _398  and  _399
REMARK  155  A    between atoms: _401  and  _403
REMARK  156  A    between atoms: _403  and  _404
REMARK  157  A    between atoms: _403  and  _406
REMARK  158  A    between atoms: _406  and  _407
REMARK  159  A    between atoms: _410  and  _412
REMARK  160  A    between atoms: _412  and  _413
REMARK  161  A    between atoms: _412  and  _415
REMARK  162  A    between atoms: _415  and  _416
REMARK  163  A    between atoms: _418  and  _420
REMARK  164  A    between atoms: _420  and  _421
REMARK  165  A    between atoms: _420  and  _423
REMARK  166  A    between atoms: _423  and  _424
REMARK  167  A    between atoms: _429  and  _430
REMARK  168  A    between atoms: _432  and  _434
REMARK  169  A    between atoms: _434  and  _435
REMARK  170  A    between atoms: _434  and  _437
REMARK  171  A    between atoms: _437  and  _438
REMARK  172  A    between atoms: _444  and  _446
REMARK  173  A    between atoms: _446  and  _447
REMARK  174  A    between atoms: _446  and  _449
REMARK  175  A    between atoms: _449  and  _450
REMARK  176  A    between atoms: _450  and  _451
REMARK  177  A    between atoms: _454  and  _456
REMARK  178  A    between atoms: _456  and  _457
REMARK  179  A    between atoms: _456  and  _459
REMARK  180  A    between atoms: _459  and  _460
REMARK  181  A    between atoms: _460  and  _461
REMARK  182  A    between atoms: _463  and  _465
REMARK  183  A    between atoms: _465  and  _466
REMARK  184  A    between atoms: _465  and  _468
REMARK  185  A    between atoms: _468  and  _469
REMARK  186  A    between atoms: _479  and  _481
REMARK  187  A    between atoms: _481  and  _482
REMARK  188  A    between atoms: _481  and  _484
REMARK  189  A    between atoms: _484  and  _485
REMARK  190  A    between atoms: _495  and  _497
REMARK  191  A    between atoms: _497  and  _498
REMARK  192  A    between atoms: _497  and  _500
REMARK  193  A    between atoms: _500  and  _501
REMARK  194  A    between atoms: _506  and  _508
REMARK  195  A    between atoms: _508  and  _509
REMARK  196  A    between atoms: _508  and  _511
REMARK  197  A    between atoms: _511  and  _512
REMARK  198  A    between atoms: _515  and  _517
REMARK  199  A    between atoms: _517  and  _518
REMARK  200  A    between atoms: _521  and  _523
REMARK  201  A    between atoms: _523  and  _524
REMARK  202  A    between atoms: _523  and  _526
REMARK  203  A    between atoms: _526  and  _527
REMARK  204  A    between atoms: _532  and  _533
REMARK  205  A    between atoms: _535  and  _537
REMARK  206  A    between atoms: _537  and  _538
REMARK  207  A    between atoms: _537  and  _540
REMARK  208  A    between atoms: _540  and  _541
REMARK  209  A    between atoms: _551  and  _553
REMARK  210  A    between atoms: _553  and  _554
REMARK  211  A    between atoms: _553  and  _556
REMARK  212  A    between atoms: _556  and  _557
REMARK  213  A    between atoms: _562  and  _564
REMARK  214  A    between atoms: _564  and  _565
REMARK  215  A    between atoms: _567  and  _569
REMARK  216  A    between atoms: _569  and  _570
REMARK  217  A    between atoms: _569  and  _572
REMARK  218  A    between atoms: _575  and  _577
REMARK  219  A    between atoms: _577  and  _578
REMARK  220  A    between atoms: _577  and  _580
REMARK  221  A    between atoms: _580  and  _581
REMARK  222  A    between atoms: _587  and  _589
REMARK  223  A    between atoms: _589  and  _590
REMARK  224  A    between atoms: _592  and  _594
REMARK  225  A    between atoms: _594  and  _595
REMARK  226  A    between atoms: _597  and  _599
REMARK  227  A    between atoms: _599  and  _600
REMARK  228  A    between atoms: _599  and  _602
REMARK  229  A    between atoms: _602  and  _603
REMARK  230  A    between atoms: _606  and  _608
REMARK  231  A    between atoms: _608  and  _609
REMARK  232  A    between atoms: _608  and  _611
REMARK  233  A    between atoms: _611  and  _612
REMARK  234  A    between atoms: _615  and  _617
REMARK  235  A    between atoms: _617  and  _618
REMARK  236  A    between atoms: _617  and  _620
REMARK  237  A    between atoms: _620  and  _621
REMARK  238  A    between atoms: _624  and  _626
REMARK  239  A    between atoms: _626  and  _627
REMARK  240  A    between atoms: _626  and  _629
REMARK  241  A    between atoms: _629  and  _630
REMARK  242  A    between atoms: _630  and  _631
REMARK                            x       y       z     vdW  Elec       q    Type
REMARK                         _______ _______ _______ _____ _____    ______ ____
ROOT
ATOM      1  CA  LEU A   1      -4.797  68.836 101.584  0.00  0.00    +0.133 C 
ENDROOT
BRANCH   1   2
ATOM      2  N   LEU A   1      -5.684  67.695 101.797  0.00  0.00    -0.239 NA
ATOM      3  H   LEU A   1      -6.037  67.160 100.978  0.00  0.00    +0.142 HD
ENDBRANCH   1   2
BRANCH   1   4
ATOM      4  C   LEU A   1      -5.671  70.057 101.312  0.00  0.00    +0.224 C 
ATOM      5  O   LEU A   1      -6.331  70.137 100.275  0.00  0.00    -0.287 OA
ENDBRANCH   1   4
BRANCH   1   6
ATOM      6  CB  LEU A   1      -3.874  68.578 100.391  0.00  0.00    +0.025 C 
BRANCH   6   7
ATOM      7  CG  LEU A   1      -3.077  67.274 100.457  0.00  0.00    +0.002 C 
ATOM      8  CD2 LEU A   1      -2.242  67.227 101.750  0.00  0.00    +0.000 C 
ATOM      9  CD1 LEU A   1      -2.182  67.171  99.243  0.00  0.00    +0.000 C 
ENDBRANCH   6   7
ENDBRANCH   1   6
TORSDOF 4
REMARK  Name = ../refined-set-2016/1k1y/1k1y_pocket.pdb
REMARK  242 active torsions:
REMARK  status: ('A' for Active; 'I' for Inactive)
REMARK    1  A    between atoms: _1  and  _3
REMARK    2  A    between atoms: _3  and  _4
REMARK    3  A    between atoms: _3  and  _6
REMARK    4  A    between atoms: _6  and  _7
REMARK    5  A    between atoms: _12  and  _14
REMARK    6  A    between atoms: _14  and  _15
REMARK    7  A    between atoms: _14  and  _17
REMARK    8  A    between atoms: _17  and  _18
REMARK    9  A    between atoms: _23  and  _25
REMARK   10  A    between atoms: _25  and  _26
REMARK   11  A    between atoms: _25  and  _28
REMARK   12  A    between atoms: _28  and  _29
REMARK   13  A    between atoms: _34  and  _36
REMARK   14  A    between atoms: _36  and  _37
REMARK   15  A    between atoms: _36  and  _39
REMARK   16  A    between atoms: _39  and  _40
REMARK   17  A    between atoms: _40  and  _41
REMARK   18  A    between atoms: _47  and  _48
REMARK   19  A    between atoms: _53  and  _55
REMARK   20  A    between atoms: _55  and  _56
REMARK   21  A    between atoms: _55  and  _58
REMARK   22  A    between atoms: _58  and  _59
REMARK   23  A    between atoms: _64  and  _66
REMARK   24  A    between atoms: _66  and  _67
REMARK   25  A    between atoms: _66  and  _69
REMARK   26  A    between atoms: _69  and  _70
REMARK   27  A    between atoms: _75  and  _76
REMARK   28  A    between atoms: _78  and  _80
REMARK   29  A    between atoms: _80  and  _81
REMARK   30  A    between atoms: _80  and  _83
REMARK   31  A    between atoms: _83  and  _84
REMARK   32  A    between atoms: _89  and  _91
REMARK   33  A    between atoms: _91  and  _92
REMARK   34  A    between atoms: _91  and  _94
REMARK   35  A    between atoms: _94  and  _95
REMARK   36  A    between atoms: _95  and  _96
REMARK   37  A    between atoms: _99  and  _101
REMARK   38  A    between atoms: _101  and  _102
REMARK   39  A    between atoms: _101  and  _104
REMARK   40  A    between atoms: _104  and  _105
REMARK   41  A    between atoms: _115  and  _117
REMARK   42  A    between atoms: _117  and  _118
REMARK   43  A    between atoms: _117  and  _120
REMARK   44  A    between atoms: _120  and  _121
REMARK   45  A    between atoms: _124  and  _126
REMARK   46  A    between atoms: _126  and  _127
REMARK   47  A    between atoms: _126  and  _129
REMARK   48  A    between atoms: _129  and  _130
REMARK   49  A    between atoms: _133  and  _135
REMARK   50  A    between atoms: _135  and  _136
REMARK   51  A    between atoms: _135  and  _138
REMARK   52  A    between atoms: _138  and  _139
REMARK   53  A    between atoms: _139  and  _140
REMARK   54  A    between atoms: _143  and  _145
REMARK   55  A    between atoms: _145  and  _146
REMARK   56  A    between atoms: _145  and  _148
REMARK   57  A    between atoms: _148  and  _149
REMARK   58  A    between atoms: _149  and  _150
REMARK   59  A    between atoms: _150  and  _151
REMARK   60  A    between atoms: _160  and  _162
REMARK   61  A    between atoms: _162  and  _163
REMARK   62  A    between atoms: _162  and  _165
REMARK   63  A    between atoms: _165  and  _166
REMARK   64  A    between atoms: _169  and  _171
REMARK   65  A    between atoms: _171  and  _172
REMARK   66  A    between atoms: _171  and  _174
REMARK   67  A    between atoms: _174  and  _175
REMARK   68  A    between atoms: _178  and  _180
REMARK   69  A    between atoms: _180  and  _181
REMARK   70  A    between atoms: _180  and  _183
REMARK   71  A    between atoms: _183  and  _184
REMARK   72  A    between atoms: _187  and  _189
REMARK   73  A    between atoms: _189  and  _190
REMARK   74  A    between atoms: _189  and  _192
REMARK   75  A    between atoms: _192  and  _193
REMARK   76  A    between atoms: _193  and  _194
REMARK   77  A    between atoms: _197  and  _199
REMARK   78  A    between atoms: _199  and  _200
REMARK   79  A    between atoms: _199  and  _202
REMARK   80  A    between atoms: _202  and  _203
REMARK   81  A    between atoms: _203  and  _204
REMARK   82  A    between atoms: _204  and  _205
REMARK   83  A    between atoms: _205  and  _206
REMARK   84  A    between atoms: _210  and  _212
REMARK   85  A    between atoms: _212  and  _213
REMARK   86  A    between atoms: _212  and  _215
REMARK   87  A    between atoms: _215  and  _216
REMARK   88  A    between atoms: _219  and  _221
REMARK   89  A    between atoms: _221  and  _222
REMARK   90  A    between atoms: _221  and  _224
REMARK   91  A    between atoms: _224  and  _225
REMARK   92  A    between atoms: _225  and  _226
REMARK   93  A    between atoms: _226  and  _227
REMARK   94  A    between atoms: _236  and  _238
REMARK   95  A    between atoms: _238  and  _239
REMARK   96  A    between atoms: _238  and  _241
REMARK   97  A    between atoms: _241  and  _242
REMARK   98  A    between atoms: _247  and  _248
REMARK   99  A    between atoms: _250  and  _252
REMARK  100  A    between atoms: _252  and  _253
REMARK  101  A    between atoms: _252  and  _255
REMARK  102  A    between atoms: _255  and  _256
REMARK  103  A    between atoms: _259  and  _261
REMARK  104  A    between atoms: _261  and  _262
REMARK  105  A    between atoms: _261  and  _264
REMARK  106  A    between atoms: _264  and  _265
REMARK  107  A    between atoms: _269  and  _270
REMARK  108  A    between atoms: _275  and  _277
REMARK  109  A    between atoms: _277  and  _278
REMARK  110  A    between atoms: _277  and  _280
REMARK  111  A    between atoms: _280  and  _281
REMARK  112  A    between atoms: _287  and  _289
REMARK  113  A    between atoms: _289  and  _290
REMARK  114  A    between atoms: _289  and  _292
REMARK  115  A    between atoms: _292  and  _293
REMARK  116  A    between atoms: _293  and  _294
REMARK  117  A    between atoms: _294  and  _295
REMARK  118  A    between atoms: _304  and  _306
REMARK  119  A    between atoms: _306  and  _307
REMARK  120  A    between atoms: _306  and  _309
REMARK  121  A    between atoms: _309  and  _310
REMARK  122  A    between atoms: _316  and  _318
REMARK  123  A    between atoms: _318  and  _319
REMARK  124  A    between atoms: _318  and  _321
REMARK  125  A    between atoms: _321  and  _322
REMARK  126  A    between atoms: _327  and  _329
REMARK  127  A    between atoms: _329  and  _330
REMARK  128  A    between atoms: _329  and  _332
REMARK  129  A    between atoms: _332  and  _333
REMARK  130  A    between atoms: _336  and  _338
REMARK  131  A    between atoms: _338  and  _339
REMARK  132  A    between atoms: _338  and  _341
REMARK  133  A    between atoms: _341  and  _342
REMARK  134  A    between atoms: _345  and  _347
REMARK  135  A    between atoms: _347  and  _348
REMARK  136  A    between atoms: _350  and  _352
REMARK  137  A    between atoms: _352  and  _353
REMARK  138  A    between atoms: _352  and  _355
REMARK  139  A    between atoms: _355  and  _356
REMARK  140  A    between atoms: _356  and  _357
REMARK  141  A    between atoms: _360  and  _362
REMARK  142  A    between atoms: _362  and  _363
REMARK  143  A    between atoms: _362  and  _365
REMARK  144  A    between atoms: _365  and  _366
REMARK  145  A    between atoms: _366  and  _367
REMARK  146  A    between atoms: _367  and  _368
REMARK  147  A    between atoms: _368  and  _369
REMARK  148  A    between atoms: _373  and  _375
REMARK  149  A    between atoms: _375  and  _376
REMARK  150  A    between atoms: _375  and  _378
REMARK  151  A    between atoms: _378  and  _379
REMARK  152  A    between atoms: _390  and  _391
REMARK  153  A    between atoms: _396  and  _398
REMARK  154  A    between atoms: _398  and  _399
REMARK  155  A    between atoms: _401  and  _403
REMARK  156  A    between atoms: _403  and  _404
REMARK  157  A    between atoms: _403  and  _406
REMARK  158  A    between atoms: _406  and  _407
REMARK  159  A    between atoms: _410  and  _412
REMARK  160  A    between atoms: _412  and  _413
REMARK  161  A    between atoms: _412  and  _415
REMARK  162  A    between atoms: _415  and  _416
REMARK  163  A    between atoms: _418  and  _420
REMARK  164  A    between atoms: _420  and  _421
REMARK  165  A    between atoms: _420  and  _423
REMARK  166  A    between atoms: _423  and  _424
REMARK  167  A    between atoms: _429  and  _430
REMARK  168  A    between atoms: _432  and  _434
REMARK  169  A    between atoms: _434  and  _435
REMARK  170  A    between atoms: _434  and  _437
REMARK  171  A    between atoms: _437  and  _438
REMARK  172  A    between atoms: _444  and  _446
REMARK  173  A    between atoms: _446  and  _447
REMARK  174  A    between atoms: _446  and  _449
REMARK  175  A    between atoms: _449  and  _450
REMARK  176  A    between atoms: _450  and  _451
REMARK  177  A    between atoms: _454  and  _456
REMARK  178  A    between atoms: _456  and  _457
REMARK  179  A    between atoms: _456  and  _459
REMARK  180  A    between atoms: _459  and  _460
REMARK  181  A    between atoms: _460  and  _461
REMARK  182  A    between atoms: _463  and  _465
REMARK  183  A    between atoms: _465  and  _466
REMARK  184  A    between atoms: _465  and  _468
REMARK  185  A    between atoms: _468  and  _469
REMARK  186  A    between atoms: _479  and  _481
REMARK  187  A    between atoms: _481  and  _482
REMARK  188  A    between atoms: _481  and  _484
REMARK  189  A    between atoms: _484  and  _485
REMARK  190  A    between atoms: _495  and  _497
REMARK  191  A    between atoms: _497  and  _498
REMARK  192  A    between atoms: _497  and  _500
REMARK  193  A    between atoms: _500  and  _501
REMARK  194  A    between atoms: _506  and  _508
REMARK  195  A    between atoms: _508  and  _509
REMARK  196  A    between atoms: _508  and  _511
REMARK  197  A    between atoms: _511  and  _512
REMARK  198  A    between atoms: _515  and  _517
REMARK  199  A    between atoms: _517  and  _518
REMARK  200  A    between atoms: _521  and  _523
REMARK  201  A    between atoms: _523  and  _524
REMARK  202  A    between atoms: _523  and  _526
REMARK  203  A    between atoms: _526  and  _527
REMARK  204  A    between atoms: _532  and  _533
REMARK  205  A    between atoms: _535  and  _537
REMARK  206  A    between atoms: _537  and  _538
REMARK  207  A    between atoms: _537  and  _540
REMARK  208  A    between atoms: _540  and  _541
REMARK  209  A    between atoms: _551  and  _553
REMARK  210  A    between atoms: _553  and  _554
REMARK  211  A    between atoms: _553  and  _556
REMARK  212  A    between atoms: _556  and  _557
REMARK  213  A    between atoms: _562  and  _564
REMARK  214  A    between atoms: _564  and  _565
REMARK  215  A    between atoms: _567  and  _569
REMARK  216  A    between atoms: _569  and  _570
REMARK  217  A    between atoms: _569  and  _572
REMARK  218  A    between atoms: _575  and  _577
REMARK  219  A    between atoms: _577  and  _578
REMARK  220  A    between atoms: _577  and  _580
REMARK  221  A    between atoms: _580  and  _581
REMARK  222  A    between atoms: _587  and  _589
REMARK  223  A    between atoms: _589  and  _590
REMARK  224  A    between atoms: _592  and  _594
REMARK  225  A    between atoms: _594  and  _595
REMARK  226  A    between atoms: _597  and  _599
REMARK  227  A    between atoms: _599  and  _600
REMARK  228  A    between atoms: _599  and  _602
REMARK  229  A    between atoms: _602  and  _603
REMARK  230  A    between atoms: _606  and  _608
REMARK  231  A    between atoms: _608  and  _609
REMARK  232  A    between atoms: _608  and  _611
REMARK  233  A    between atoms: _611  and  _612
REMARK  234  A    between atoms: _615  and  _617
REMARK  235  A    between atoms: _617  and  _618
REMARK  236  A    between atoms: _617  and  _620
REMARK  237  A    between atoms: _620  and  _621
REMARK  238  A    between atoms: _624  and  _626
REMARK  239  A    between atoms: _626  and  _627
REMARK  240  A    between atoms: _626  and  _629
REMARK  241  A    between atoms: _629  and  _630
REMARK  242  A    between atoms: _630  and  _631
REMARK                            x       y       z     vdW  Elec       q    Type
REMARK                         _______ _______ _______ _____ _____    ______ ____
ROOT
ATOM      1  CA  LEU A   1      -6.023  71.091  96.688  0.00  0.00    +0.133 C 
ENDROOT
BRANCH   1   2
ATOM      2  N   LEU A   1      -5.422  71.780  97.839  0.00  0.00    -0.239 NA
ATOM      3  H   LEU A   1      -5.129  71.228  98.670  0.00  0.00    +0.142 HD
ENDBRANCH   1   2
BRANCH   1   4
ATOM      4  C   LEU A   1      -7.538  71.299  96.706  0.00  0.00    +0.224 C 
ATOM      5  O   LEU A   1      -8.173  71.472  95.661  0.00  0.00    -0.287 OA
ENDBRANCH   1   4
BRANCH   1   6
ATOM      6  CB  LEU A   1      -5.728  69.589  96.732  0.00  0.00    +0.025 C 
BRANCH   6   7
ATOM      7  CG  LEU A   1      -4.274  69.194  96.493  0.00  0.00    +0.002 C 
ATOM      8  CD2 LEU A   1      -4.138  67.679  96.470  0.00  0.00    +0.000 C 
ATOM      9  CD1 LEU A   1      -3.812  69.794  95.176  0.00  0.00    +0.000 C 
ENDBRANCH   6   7
ENDBRANCH   1   6
TORSDOF 4
REMARK  Name = ../refined-set-2016/1k1y/1k1y_pocket.pdb
REMARK  242 active torsions:
REMARK  status: ('A' for Active; 'I' for Inactive)
REMARK    1  A    between atoms: _1  and  _3
REMARK    2  A    between atoms: _3  and  _4
REMARK    3  A    between atoms: _3  and  _6
REMARK    4  A    between atoms: _6  and  _7
REMARK    5  A    between atoms: _12  and  _14
REMARK    6  A    between atoms: _14  and  _15
REMARK    7  A    between atoms: _14  and  _17
REMARK    8  A    between atoms: _17  and  _18
REMARK    9  A    between atoms: _23  and  _25
REMARK   10  A    between atoms: _25  and  _26
REMARK   11  A    between atoms: _25  and  _28
REMARK   12  A    between atoms: _28  and  _29
REMARK   13  A    between atoms: _34  and  _36
REMARK   14  A    between atoms: _36  and  _37
REMARK   15  A    between atoms: _36  and  _39
REMARK   16  A    between atoms: _39  and  _40
REMARK   17  A    between atoms: _40  and  _41
REMARK   18  A    between atoms: _47  and  _48
REMARK   19  A    between atoms: _53  and  _55
REMARK   20  A    between atoms: _55  and  _56
REMARK   21  A    between atoms: _55  and  _58
REMARK   22  A    between atoms: _58  and  _59
REMARK   23  A    between atoms: _64  and  _66
REMARK   24  A    between atoms: _66  and  _67
REMARK   25  A    between atoms: _66  and  _69
REMARK   26  A    between atoms: _69  and  _70
REMARK   27  A    between atoms: _75  and  _76
REMARK   28  A    between atoms: _78  and  _80
REMARK   29  A    between atoms: _80  and  _81
REMARK   30  A    between atoms: _80  and  _83
REMARK   31  A    between atoms: _83  and  _84
REMARK   32  A    between atoms: _89  and  _91
REMARK   33  A    between atoms: _91  and  _92
REMARK   34  A    between atoms: _91  and  _94
REMARK   35  A    between atoms: _94  and  _95
REMARK   36  A    between atoms: _95  and  _96
REMARK   37  A    between atoms: _99  and  _101
REMARK   38  A    between atoms: _101  and  _102
REMARK   39  A    between atoms: _101  and  _104
REMARK   40  A    between atoms: _104  and  _105
REMARK   41  A    between atoms: _115  and  _117
REMARK   42  A    between atoms: _117  and  _118
REMARK   43  A    between atoms: _117  and  _120
REMARK   44  A    between atoms: _120  and  _121
REMARK   45  A    between atoms: _124  and  _126
REMARK   46  A    between atoms: _126  and  _127
REMARK   47  A    between atoms: _126  and  _129
REMARK   48  A    between atoms: _129  and  _130
REMARK   49  A    between atoms: _133  and  _135
REMARK   50  A    between atoms: _135  and  _136
REMARK   51  A    between atoms: _135  and  _138
REMARK   52  A    between atoms: _138  and  _139
REMARK   53  A    between atoms: _139  and  _140
REMARK   54  A    between atoms: _143  and  _145
REMARK   55  A    between atoms: _145  and  _146
REMARK   56  A    between atoms: _145  and  _148
REMARK   57  A    between atoms: _148  and  _149
REMARK   58  A    between atoms: _149  and  _150
REMARK   59  A    between atoms: _150  and  _151
REMARK   60  A    between atoms: _160  and  _162
REMARK   61  A    between atoms: _162  and  _163
REMARK   62  A    between atoms: _162  and  _165
REMARK   63  A    between atoms: _165  and  _166
REMARK   64  A    between atoms: _169  and  _171
REMARK   65  A    between atoms: _171  and  _172
REMARK   66  A    between atoms: _171  and  _174
REMARK   67  A    between atoms: _174  and  _175
REMARK   68  A    between atoms: _178  and  _180
REMARK   69  A    between atoms: _180  and  _181
REMARK   70  A    between atoms: _180  and  _183
REMARK   71  A    between atoms: _183  and  _184
REMARK   72  A    between atoms: _187  and  _189
REMARK   73  A    between atoms: _189  and  _190
REMARK   74  A    between atoms: _189  and  _192
REMARK   75  A    between atoms: _192  and  _193
REMARK   76  A    between atoms: _193  and  _194
REMARK   77  A    between atoms: _197  and  _199
REMARK   78  A    between atoms: _199  and  _200
REMARK   79  A    between atoms: _199  and  _202
REMARK   80  A    between atoms: _202  and  _203
REMARK   81  A    between atoms: _203  and  _204
REMARK   82  A    between atoms: _204  and  _205
REMARK   83  A    between atoms: _205  and  _206
REMARK   84  A    between atoms: _210  and  _212
REMARK   85  A    between atoms: _212  and  _213
REMARK   86  A    between atoms: _212  and  _215
REMARK   87  A    between atoms: _215  and  _216
REMARK   88  A    between atoms: _219  and  _221
REMARK   89  A    between atoms: _221  and  _222
REMARK   90  A    between atoms: _221  and  _224
REMARK   91  A    between atoms: _224  and  _225
REMARK   92  A    between atoms: _225  and  _226
REMARK   93  A    between atoms: _226  and  _227
REMARK   94  A    between atoms: _236  and  _238
REMARK   95  A    between atoms: _238  and  _239
REMARK   96  A    between atoms: _238  and  _241
REMARK   97  A    between atoms: _241  and  _242
REMARK   98  A    between atoms: _247  and  _248
REMARK   99  A    between atoms: _250  and  _252
REMARK  100  A    between atoms: _252  and  _253
REMARK  101  A    between atoms: _252  and  _255
REMARK  102  A    between atoms: _255  and  _256
REMARK  103  A    between atoms: _259  and  _261
REMARK  104  A    between atoms: _261  and  _262
REMARK  105  A    between atoms: _261  and  _264
REMARK  106  A    between atoms: _264  and  _265
REMARK  107  A    between atoms: _269  and  _270
REMARK  108  A    between atoms: _275  and  _277
REMARK  109  A    between atoms: _277  and  _278
REMARK  110  A    between atoms: _277  and  _280
REMARK  111  A    between atoms: _280  and  _281
REMARK  112  A    between atoms: _287  and  _289
REMARK  113  A    between atoms: _289  and  _290
REMARK  114  A    between atoms: _289  and  _292
REMARK  115  A    between atoms: _292  and  _293
REMARK  116  A    between atoms: _293  and  _294
REMARK  117  A    between atoms: _294  and  _295
REMARK  118  A    between atoms: _304  and  _306
REMARK  119  A    between atoms: _306  and  _307
REMARK  120  A    between atoms: _306  and  _309
REMARK  121  A    between atoms: _309  and  _310
REMARK  122  A    between atoms: _316  and  _318
REMARK  123  A    between atoms: _318  and  _319
REMARK  124  A    between atoms: _318  and  _321
REMARK  125  A    between atoms: _321  and  _322
REMARK  126  A    between atoms: _327  and  _329
REMARK  127  A    between atoms: _329  and  _330
REMARK  128  A    between atoms: _329  and  _332
REMARK  129  A    between atoms: _332  and  _333
REMARK  130  A    between atoms: _336  and  _338
REMARK  131  A    between atoms: _338  and  _339
REMARK  132  A    between atoms: _338  and  _341
REMARK  133  A    between atoms: _341  and  _342
REMARK  134  A    between atoms: _345  and  _347
REMARK  135  A    between atoms: _347  and  _348
REMARK  136  A    between atoms: _350  and  _352
REMARK  137  A    between atoms: _352  and  _353
REMARK  138  A    between atoms: _352  and  _355
REMARK  139  A    between atoms: _355  and  _356
REMARK  140  A    between atoms: _356  and  _357
REMARK  141  A    between atoms: _360  and  _362
REMARK  142  A    between atoms: _362  and  _363
REMARK  143  A    between atoms: _362  and  _365
REMARK  144  A    between atoms: _365  and  _366
REMARK  145  A    between atoms: _366  and  _367
REMARK  146  A    between atoms: _367  and  _368
REMARK  147  A    between atoms: _368  and  _369
REMARK  148  A    between atoms: _373  and  _375
REMARK  149  A    between atoms: _375  and  _376
REMARK  150  A    between atoms: _375  and  _378
REMARK  151  A    between atoms: _378  and  _379
REMARK  152  A    between atoms: _390  and  _391
REMARK  153  A    between atoms: _396  and  _398
REMARK  154  A    between atoms: _398  and  _399
REMARK  155  A    between atoms: _401  and  _403
REMARK  156  A    between atoms: _403  and  _404
REMARK  157  A    between atoms: _403  and  _406
REMARK  158  A    between atoms: _406  and  _407
REMARK  159  A    between atoms: _410  and  _412
REMARK  160  A    between atoms: _412  and  _413
REMARK  161  A    between atoms: _412  and  _415
REMARK  162  A    between atoms: _415  and  _416
REMARK  163  A    between atoms: _418  and  _420
REMARK  164  A    between atoms: _420  and  _421
REMARK  165  A    between atoms: _420  and  _423
REMARK  166  A    between atoms: _423  and  _424
REMARK  167  A    between atoms: _429  and  _430
REMARK  168  A    between atoms: _432  and  _434
REMARK  169  A    between atoms: _434  and  _435
REMARK  170  A    between atoms: _434  and  _437
REMARK  171  A    between atoms: _437  and  _438
REMARK  172  A    between atoms: _444  and  _446
REMARK  173  A    between atoms: _446  and  _447
REMARK  174  A    between atoms: _446  and  _449
REMARK  175  A    between atoms: _449  and  _450
REMARK  176  A    between atoms: _450  and  _451
REMARK  177  A    between atoms: _454  and  _456
REMARK  178  A    between atoms: _456  and  _457
REMARK  179  A    between atoms: _456  and  _459
REMARK  180  A    between atoms: _459  and  _460
REMARK  181  A    between atoms: _460  and  _461
REMARK  182  A    between atoms: _463  and  _465
REMARK  183  A    between atoms: _465  and  _466
REMARK  184  A    between atoms: _465  and  _468
REMARK  185  A    between atoms: _468  and  _469
REMARK  186  A    between atoms: _479  and  _481
REMARK  187  A    between atoms: _481  and  _482
REMARK  188  A    between atoms: _481  and  _484
REMARK  189  A    between atoms: _484  and  _485
REMARK  190  A    between atoms: _495  and  _497
REMARK  191  A    between atoms: _497  and  _498
REMARK  192  A    between atoms: _497  and  _500
REMARK  193  A    between atoms: _500  and  _501
REMARK  194  A    between atoms: _506  and  _508
REMARK  195  A    between atoms: _508  and  _509
REMARK  196  A    between atoms: _508  and  _511
REMARK  197  A    between atoms: _511  and  _512
REMARK  198  A    between atoms: _515  and  _517
REMARK  199  A    between atoms: _517  and  _518
REMARK  200  A    between atoms: _521  and  _523
REMARK  201  A    between atoms: _523  and  _524
REMARK  202  A    between atoms: _523  and  _526
REMARK  203  A    between atoms: _526  and  _527
REMARK  204  A    between atoms: _532  and  _533
REMARK  205  A    between atoms: _535  and  _537
REMARK  206  A    between atoms: _537  and  _538
REMARK  207  A    between atoms: _537  and  _540
REMARK  208  A    between atoms: _540  and  _541
REMARK  209  A    between atoms: _551  and  _553
REMARK  210  A    between atoms: _553  and  _554
REMARK  211  A    between atoms: _553  and  _556
REMARK  212  A    between atoms: _556  and  _557
REMARK  213  A    between atoms: _562  and  _564
REMARK  214  A    between atoms: _564  and  _565
REMARK  215  A    between atoms: _567  and  _569
REMARK  216  A    between atoms: _569  and  _570
REMARK  217  A    between atoms: _569  and  _572
REMARK  218  A    between atoms: _575  and  _577
REMARK  219  A    between atoms: _577  and  _578
REMARK  220  A    between atoms: _577  and  _580
REMARK  221  A    between atoms: _580  and  _581
REMARK  222  A    between atoms: _587  and  _589
REMARK  223  A    between atoms: _589  and  _590
REMARK  224  A    between atoms: _592  and  _594
REMARK  225  A    between atoms: _594  and  _595
REMARK  226  A    between atoms: _597  and  _599
REMARK  227  A    between atoms: _599  and  _600
REMARK  228  A    between atoms: _599  and  _602
REMARK  229  A    between atoms: _602  and  _603
REMARK  230  A    between atoms: _606  and  _608
REMARK  231  A    between atoms: _608  and  _609
REMARK  232  A    between atoms: _608  and  _611
REMARK  233  A    between atoms: _611  and  _612
REMARK  234  A    between atoms: _615  and  _617
REMARK  235  A    between atoms: _617  and  _618
REMARK  236  A    between atoms: _617  and  _620
REMARK  237  A    between atoms: _620  and  _621
REMARK  238  A    between atoms: _624  and  _626
REMARK  239  A    between atoms: _626  and  _627
REMARK  240  A    between atoms: _626  and  _629
REMARK  241  A    between atoms: _629  and  _630
REMARK  242  A    between atoms: _630  and  _631
REMARK                            x       y       z     vdW  Elec       q    Type
REMARK                         _______ _______ _______ _____ _____    ______ ____
ROOT
ATOM      1  CA  GLU A   1       7.439  58.070 105.539  0.00  0.00    +0.134 C 
ENDROOT
BRANCH   1   2
ATOM      2  N   GLU A   1       6.346  58.979 105.219  0.00  0.00    -0.239 NA
ATOM      3  H   GLU A   1       6.404  59.581 104.373  0.00  0.00    +0.142 HD
ENDBRANCH   1   2
BRANCH   1   4
ATOM      4  C   GLU A   1       8.268  58.735 106.629  0.00  0.00    +0.224 C 
ATOM      5  O   GLU A   1       9.079  58.092 107.294  0.00  0.00    -0.287 OA
ENDBRANCH   1   4
BRANCH   1   6
ATOM      6  CB  GLU A   1       8.303  57.800 104.305  0.00  0.00    +0.037 C 
BRANCH   6   7
ATOM      7  CG  GLU A   1       7.514  57.331 103.090  0.00  0.00    +0.116 C 
BRANCH   7   8
ATOM      8  CD  GLU A   1       8.369  56.571 102.092  0.00  0.00    +0.365 C 
ATOM      9  OE2 GLU A   1       9.519  56.990 101.851  0.00  0.00    -0.246 OA
ATOM     10  OE1 GLU A   1       7.887  55.558 101.542  0.00  0.00    -0.246 OA
ENDBRANCH   7   8
ENDBRANCH   6   7
ENDBRANCH   1   6
TORSDOF 5
REMARK  Name = ../refined-set-2016/1k1y/1k1y_pocket.pdb
REMARK  242 active torsions:
REMARK  status: ('A' for Active; 'I' for Inactive)
REMARK    1  A    between atoms: _1  and  _3
REMARK    2  A    between atoms: _3  and  _4
REMARK    3  A    between atoms: _3  and  _6
REMARK    4  A    between atoms: _6  and  _7
REMARK    5  A    between atoms: _12  and  _14
REMARK    6  A    between atoms: _14  and  _15
REMARK    7  A    between atoms: _14  and  _17
REMARK    8  A    between atoms: _17  and  _18
REMARK    9  A    between atoms: _23  and  _25
REMARK   10  A    between atoms: _25  and  _26
REMARK   11  A    between atoms: _25  and  _28
REMARK   12  A    between atoms: _28  and  _29
REMARK   13  A    between atoms: _34  and  _36
REMARK   14  A    between atoms: _36  and  _37
REMARK   15  A    between atoms: _36  and  _39
REMARK   16  A    between atoms: _39  and  _40
REMARK   17  A    between atoms: _40  and  _41
REMARK   18  A    between atoms: _47  and  _48
REMARK   19  A    between atoms: _53  and  _55
REMARK   20  A    between atoms: _55  and  _56
REMARK   21  A    between atoms: _55  and  _58
REMARK   22  A    between atoms: _58  and  _59
REMARK   23  A    between atoms: _64  and  _66
REMARK   24  A    between atoms: _66  and  _67
REMARK   25  A    between atoms: _66  and  _69
REMARK   26  A    between atoms: _69  and  _70
REMARK   27  A    between atoms: _75  and  _76
REMARK   28  A    between atoms: _78  and  _80
REMARK   29  A    between atoms: _80  and  _81
REMARK   30  A    between atoms: _80  and  _83
REMARK   31  A    between atoms: _83  and  _84
REMARK   32  A    between atoms: _89  and  _91
REMARK   33  A    between atoms: _91  and  _92
REMARK   34  A    between atoms: _91  and  _94
REMARK   35  A    between atoms: _94  and  _95
REMARK   36  A    between atoms: _95  and  _96
REMARK   37  A    between atoms: _99  and  _101
REMARK   38  A    between atoms: _101  and  _102
REMARK   39  A    between atoms: _101  and  _104
REMARK   40  A    between atoms: _104  and  _105
REMARK   41  A    between atoms: _115  and  _117
REMARK   42  A    between atoms: _117  and  _118
REMARK   43  A    between atoms: _117  and  _120
REMARK   44  A    between atoms: _120  and  _121
REMARK   45  A    between atoms: _124  and  _126
REMARK   46  A    between atoms: _126  and  _127
REMARK   47  A    between atoms: _126  and  _129
REMARK   48  A    between atoms: _129  and  _130
REMARK   49  A    between atoms: _133  and  _135
REMARK   50  A    between atoms: _135  and  _136
REMARK   51  A    between atoms: _135  and  _138
REMARK   52  A    between atoms: _138  and  _139
REMARK   53  A    between atoms: _139  and  _140
REMARK   54  A    between atoms: _143  and  _145
REMARK   55  A    between atoms: _145  and  _146
REMARK   56  A    between atoms: _145  and  _148
REMARK   57  A    between atoms: _148  and  _149
REMARK   58  A    between atoms: _149  and  _150
REMARK   59  A    between atoms: _150  and  _151
REMARK   60  A    between atoms: _160  and  _162
REMARK   61  A    between atoms: _162  and  _163
REMARK   62  A    between atoms: _162  and  _165
REMARK   63  A    between atoms: _165  and  _166
REMARK   64  A    between atoms: _169  and  _171
REMARK   65  A    between atoms: _171  and  _172
REMARK   66  A    between atoms: _171  and  _174
REMARK   67  A    between atoms: _174  and  _175
REMARK   68  A    between atoms: _178  and  _180
REMARK   69  A    between atoms: _180  and  _181
REMARK   70  A    between atoms: _180  and  _183
REMARK   71  A    between atoms: _183  and  _184
REMARK   72  A    between atoms: _187  and  _189
REMARK   73  A    between atoms: _189  and  _190
REMARK   74  A    between atoms: _189  and  _192
REMARK   75  A    between atoms: _192  and  _193
REMARK   76  A    between atoms: _193  and  _194
REMARK   77  A    between atoms: _197  and  _199
REMARK   78  A    between atoms: _199  and  _200
REMARK   79  A    between atoms: _199  and  _202
REMARK   80  A    between atoms: _202  and  _203
REMARK   81  A    between atoms: _203  and  _204
REMARK   82  A    between atoms: _204  and  _205
REMARK   83  A    between atoms: _205  and  _206
REMARK   84  A    between atoms: _210  and  _212
REMARK   85  A    between atoms: _212  and  _213
REMARK   86  A    between atoms: _212  and  _215
REMARK   87  A    between atoms: _215  and  _216
REMARK   88  A    between atoms: _219  and  _221
REMARK   89  A    between atoms: _221  and  _222
REMARK   90  A    between atoms: _221  and  _224
REMARK   91  A    between atoms: _224  and  _225
REMARK   92  A    between atoms: _225  and  _226
REMARK   93  A    between atoms: _226  and  _227
REMARK   94  A    between atoms: _236  and  _238
REMARK   95  A    between atoms: _238  and  _239
REMARK   96  A    between atoms: _238  and  _241
REMARK   97  A    between atoms: _241  and  _242
REMARK   98  A    between atoms: _247  and  _248
REMARK   99  A    between atoms: _250  and  _252
REMARK  100  A    between atoms: _252  and  _253
REMARK  101  A    between atoms: _252  and  _255
REMARK  102  A    between atoms: _255  and  _256
REMARK  103  A    between atoms: _259  and  _261
REMARK  104  A    between atoms: _261  and  _262
REMARK  105  A    between atoms: _261  and  _264
REMARK  106  A    between atoms: _264  and  _265
REMARK  107  A    between atoms: _269  and  _270
REMARK  108  A    between atoms: _275  and  _277
REMARK  109  A    between atoms: _277  and  _278
REMARK  110  A    between atoms: _277  and  _280
REMARK  111  A    between atoms: _280  and  _281
REMARK  112  A    between atoms: _287  and  _289
REMARK  113  A    between atoms: _289  and  _290
REMARK  114  A    between atoms: _289  and  _292
REMARK  115  A    between atoms: _292  and  _293
REMARK  116  A    between atoms: _293  and  _294
REMARK  117  A    between atoms: _294  and  _295
REMARK  118  A    between atoms: _304  and  _306
REMARK  119  A    between atoms: _306  and  _307
REMARK  120  A    between atoms: _306  and  _309
REMARK  121  A    between atoms: _309  and  _310
REMARK  122  A    between atoms: _316  and  _318
REMARK  123  A    between atoms: _318  and  _319
REMARK  124  A    between atoms: _318  and  _321
REMARK  125  A    between atoms: _321  and  _322
REMARK  126  A    between atoms: _327  and  _329
REMARK  127  A    between atoms: _329  and  _330
REMARK  128  A    between atoms: _329  and  _332
REMARK  129  A    between atoms: _332  and  _333
REMARK  130  A    between atoms: _336  and  _338
REMARK  131  A    between atoms: _338  and  _339
REMARK  132  A    between atoms: _338  and  _341
REMARK  133  A    between atoms: _341  and  _342
REMARK  134  A    between atoms: _345  and  _347
REMARK  135  A    between atoms: _347  and  _348
REMARK  136  A    between atoms: _350  and  _352
REMARK  137  A    between atoms: _352  and  _353
REMARK  138  A    between atoms: _352  and  _355
REMARK  139  A    between atoms: _355  and  _356
REMARK  140  A    between atoms: _356  and  _357
REMARK  141  A    between atoms: _360  and  _362
REMARK  142  A    between atoms: _362  and  _363
REMARK  143  A    between atoms: _362  and  _365
REMARK  144  A    between atoms: _365  and  _366
REMARK  145  A    between atoms: _366  and  _367
REMARK  146  A    between atoms: _367  and  _368
REMARK  147  A    between atoms: _368  and  _369
REMARK  148  A    between atoms: _373  and  _375
REMARK  149  A    between atoms: _375  and  _376
REMARK  150  A    between atoms: _375  and  _378
REMARK  151  A    between atoms: _378  and  _379
REMARK  152  A    between atoms: _390  and  _391
REMARK  153  A    between atoms: _396  and  _398
REMARK  154  A    between atoms: _398  and  _399
REMARK  155  A    between atoms: _401  and  _403
REMARK  156  A    between atoms: _403  and  _404
REMARK  157  A    between atoms: _403  and  _406
REMARK  158  A    between atoms: _406  and  _407
REMARK  159  A    between atoms: _410  and  _412
REMARK  160  A    between atoms: _412  and  _413
REMARK  161  A    between atoms: _412  and  _415
REMARK  162  A    between atoms: _415  and  _416
REMARK  163  A    between atoms: _418  and  _420
REMARK  164  A    between atoms: _420  and  _421
REMARK  165  A    between atoms: _420  and  _423
REMARK  166  A    between atoms: _423  and  _424
REMARK  167  A    between atoms: _429  and  _430
REMARK  168  A    between atoms: _432  and  _434
REMARK  169  A    between atoms: _434  and  _435
REMARK  170  A    between atoms: _434  and  _437
REMARK  171  A    between atoms: _437  and  _438
REMARK  172  A    between atoms: _444  and  _446
REMARK  173  A    between atoms: _446  and  _447
REMARK  174  A    between atoms: _446  and  _449
REMARK  175  A    between atoms: _449  and  _450
REMARK  176  A    between atoms: _450  and  _451
REMARK  177  A    between atoms: _454  and  _456
REMARK  178  A    between atoms: _456  and  _457
REMARK  179  A    between atoms: _456  and  _459
REMARK  180  A    between atoms: _459  and  _460
REMARK  181  A    between atoms: _460  and  _461
REMARK  182  A    between atoms: _463  and  _465
REMARK  183  A    between atoms: _465  and  _466
REMARK  184  A    between atoms: _465  and  _468
REMARK  185  A    between atoms: _468  and  _469
REMARK  186  A    between atoms: _479  and  _481
REMARK  187  A    between atoms: _481  and  _482
REMARK  188  A    between atoms: _481  and  _484
REMARK  189  A    between atoms: _484  and  _485
REMARK  190  A    between atoms: _495  and  _497
REMARK  191  A    between atoms: _497  and  _498
REMARK  192  A    between atoms: _497  and  _500
REMARK  193  A    between atoms: _500  and  _501
REMARK  194  A    between atoms: _506  and  _508
REMARK  195  A    between atoms: _508  and  _509
REMARK  196  A    between atoms: _508  and  _511
REMARK  197  A    between atoms: _511  and  _512
REMARK  198  A    between atoms: _515  and  _517
REMARK  199  A    between atoms: _517  and  _518
REMARK  200  A    between atoms: _521  and  _523
REMARK  201  A    between atoms: _523  and  _524
REMARK  202  A    between atoms: _523  and  _526
REMARK  203  A    between atoms: _526  and  _527
REMARK  204  A    between atoms: _532  and  _533
REMARK  205  A    between atoms: _535  and  _537
REMARK  206  A    between atoms: _537  and  _538
REMARK  207  A    between atoms: _537  and  _540
REMARK  208  A    between atoms: _540  and  _541
REMARK  209  A    between atoms: _551  and  _553
REMARK  210  A    between atoms: _553  and  _554
REMARK  211  A    between atoms: _553  and  _556
REMARK  212  A    between atoms: _556  and  _557
REMARK  213  A    between atoms: _562  and  _564
REMARK  214  A    between atoms: _564  and  _565
REMARK  215  A    between atoms: _567  and  _569
REMARK  216  A    between atoms: _569  and  _570
REMARK  217  A    between atoms: _569  and  _572
REMARK  218  A    between atoms: _575  and  _577
REMARK  219  A    between atoms: _577  and  _578
REMARK  220  A    between atoms: _577  and  _580
REMARK  221  A    between atoms: _580  and  _581
REMARK  222  A    between atoms: _587  and  _589
REMARK  223  A    between atoms: _589  and  _590
REMARK  224  A    between atoms: _592  and  _594
REMARK  225  A    between atoms: _594  and  _595
REMARK  226  A    between atoms: _597  and  _599
REMARK  227  A    between atoms: _599  and  _600
REMARK  228  A    between atoms: _599  and  _602
REMARK  229  A    between atoms: _602  and  _603
REMARK  230  A    between atoms: _606  and  _608
REMARK  231  A    between atoms: _608  and  _609
REMARK  232  A    between atoms: _608  and  _611
REMARK  233  A    between atoms: _611  and  _612
REMARK  234  A    between atoms: _615  and  _617
REMARK  235  A    between atoms: _617  and  _618
REMARK  236  A    between atoms: _617  and  _620
REMARK  237  A    between atoms: _620  and  _621
REMARK  238  A    between atoms: _624  and  _626
REMARK  239  A    between atoms: _626  and  _627
REMARK  240  A    between atoms: _626  and  _629
REMARK  241  A    between atoms: _629  and  _630
REMARK  242  A    between atoms: _630  and  _631
REMARK                            x       y       z     vdW  Elec       q    Type
REMARK                         _______ _______ _______ _____ _____    ______ ____
ROOT
ATOM      1  O   HOH     1      -3.715  60.797  87.692  0.00  0.00    +0.000 OA
ENDROOT
TORSDOF 0
REMARK  Name = ../refined-set-2016/1k1y/1k1y_pocket.pdb
REMARK  242 active torsions:
REMARK  status: ('A' for Active; 'I' for Inactive)
REMARK    1  A    between atoms: _1  and  _3
REMARK    2  A    between atoms: _3  and  _4
REMARK    3  A    between atoms: _3  and  _6
REMARK    4  A    between atoms: _6  and  _7
REMARK    5  A    between atoms: _12  and  _14
REMARK    6  A    between atoms: _14  and  _15
REMARK    7  A    between atoms: _14  and  _17
REMARK    8  A    between atoms: _17  and  _18
REMARK    9  A    between atoms: _23  and  _25
REMARK   10  A    between atoms: _25  and  _26
REMARK   11  A    between atoms: _25  and  _28
REMARK   12  A    between atoms: _28  and  _29
REMARK   13  A    between atoms: _34  and  _36
REMARK   14  A    between atoms: _36  and  _37
REMARK   15  A    between atoms: _36  and  _39
REMARK   16  A    between atoms: _39  and  _40
REMARK   17  A    between atoms: _40  and  _41
REMARK   18  A    between atoms: _47  and  _48
REMARK   19  A    between atoms: _53  and  _55
REMARK   20  A    between atoms: _55  and  _56
REMARK   21  A    between atoms: _55  and  _58
REMARK   22  A    between atoms: _58  and  _59
REMARK   23  A    between atoms: _64  and  _66
REMARK   24  A    between atoms: _66  and  _67
REMARK   25  A    between atoms: _66  and  _69
REMARK   26  A    between atoms: _69  and  _70
REMARK   27  A    between atoms: _75  and  _76
REMARK   28  A    between atoms: _78  and  _80
REMARK   29  A    between atoms: _80  and  _81
REMARK   30  A    between atoms: _80  and  _83
REMARK   31  A    between atoms: _83  and  _84
REMARK   32  A    between atoms: _89  and  _91
REMARK   33  A    between atoms: _91  and  _92
REMARK   34  A    between atoms: _91  and  _94
REMARK   35  A    between atoms: _94  and  _95
REMARK   36  A    between atoms: _95  and  _96
REMARK   37  A    between atoms: _99  and  _101
REMARK   38  A    between atoms: _101  and  _102
REMARK   39  A    between atoms: _101  and  _104
REMARK   40  A    between atoms: _104  and  _105
REMARK   41  A    between atoms: _115  and  _117
REMARK   42  A    between atoms: _117  and  _118
REMARK   43  A    between atoms: _117  and  _120
REMARK   44  A    between atoms: _120  and  _121
REMARK   45  A    between atoms: _124  and  _126
REMARK   46  A    between atoms: _126  and  _127
REMARK   47  A    between atoms: _126  and  _129
REMARK   48  A    between atoms: _129  and  _130
REMARK   49  A    between atoms: _133  and  _135
REMARK   50  A    between atoms: _135  and  _136
REMARK   51  A    between atoms: _135  and  _138
REMARK   52  A    between atoms: _138  and  _139
REMARK   53  A    between atoms: _139  and  _140
REMARK   54  A    between atoms: _143  and  _145
REMARK   55  A    between atoms: _145  and  _146
REMARK   56  A    between atoms: _145  and  _148
REMARK   57  A    between atoms: _148  and  _149
REMARK   58  A    between atoms: _149  and  _150
REMARK   59  A    between atoms: _150  and  _151
REMARK   60  A    between atoms: _160  and  _162
REMARK   61  A    between atoms: _162  and  _163
REMARK   62  A    between atoms: _162  and  _165
REMARK   63  A    between atoms: _165  and  _166
REMARK   64  A    between atoms: _169  and  _171
REMARK   65  A    between atoms: _171  and  _172
REMARK   66  A    between atoms: _171  and  _174
REMARK   67  A    between atoms: _174  and  _175
REMARK   68  A    between atoms: _178  and  _180
REMARK   69  A    between atoms: _180  and  _181
REMARK   70  A    between atoms: _180  and  _183
REMARK   71  A    between atoms: _183  and  _184
REMARK   72  A    between atoms: _187  and  _189
REMARK   73  A    between atoms: _189  and  _190
REMARK   74  A    between atoms: _189  and  _192
REMARK   75  A    between atoms: _192  and  _193
REMARK   76  A    between atoms: _193  and  _194
REMARK   77  A    between atoms: _197  and  _199
REMARK   78  A    between atoms: _199  and  _200
REMARK   79  A    between atoms: _199  and  _202
REMARK   80  A    between atoms: _202  and  _203
REMARK   81  A    between atoms: _203  and  _204
REMARK   82  A    between atoms: _204  and  _205
REMARK   83  A    between atoms: _205  and  _206
REMARK   84  A    between atoms: _210  and  _212
REMARK   85  A    between atoms: _212  and  _213
REMARK   86  A    between atoms: _212  and  _215
REMARK   87  A    between atoms: _215  and  _216
REMARK   88  A    between atoms: _219  and  _221
REMARK   89  A    between atoms: _221  and  _222
REMARK   90  A    between atoms: _221  and  _224
REMARK   91  A    between atoms: _224  and  _225
REMARK   92  A    between atoms: _225  and  _226
REMARK   93  A    between atoms: _226  and  _227
REMARK   94  A    between atoms: _236  and  _238
REMARK   95  A    between atoms: _238  and  _239
REMARK   96  A    between atoms: _238  and  _241
REMARK   97  A    between atoms: _241  and  _242
REMARK   98  A    between atoms: _247  and  _248
REMARK   99  A    between atoms: _250  and  _252
REMARK  100  A    between atoms: _252  and  _253
REMARK  101  A    between atoms: _252  and  _255
REMARK  102  A    between atoms: _255  and  _256
REMARK  103  A    between atoms: _259  and  _261
REMARK  104  A    between atoms: _261  and  _262
REMARK  105  A    between atoms: _261  and  _264
REMARK  106  A    between atoms: _264  and  _265
REMARK  107  A    between atoms: _269  and  _270
REMARK  108  A    between atoms: _275  and  _277
REMARK  109  A    between atoms: _277  and  _278
REMARK  110  A    between atoms: _277  and  _280
REMARK  111  A    between atoms: _280  and  _281
REMARK  112  A    between atoms: _287  and  _289
REMARK  113  A    between atoms: _289  and  _290
REMARK  114  A    between atoms: _289  and  _292
REMARK  115  A    between atoms: _292  and  _293
REMARK  116  A    between atoms: _293  and  _294
REMARK  117  A    between atoms: _294  and  _295
REMARK  118  A    between atoms: _304  and  _306
REMARK  119  A    between atoms: _306  and  _307
REMARK  120  A    between atoms: _306  and  _309
REMARK  121  A    between atoms: _309  and  _310
REMARK  122  A    between atoms: _316  and  _318
REMARK  123  A    between atoms: _318  and  _319
REMARK  124  A    between atoms: _318  and  _321
REMARK  125  A    between atoms: _321  and  _322
REMARK  126  A    between atoms: _327  and  _329
REMARK  127  A    between atoms: _329  and  _330
REMARK  128  A    between atoms: _329  and  _332
REMARK  129  A    between atoms: _332  and  _333
REMARK  130  A    between atoms: _336  and  _338
REMARK  131  A    between atoms: _338  and  _339
REMARK  132  A    between atoms: _338  and  _341
REMARK  133  A    between atoms: _341  and  _342
REMARK  134  A    between atoms: _345  and  _347
REMARK  135  A    between atoms: _347  and  _348
REMARK  136  A    between atoms: _350  and  _352
REMARK  137  A    between atoms: _352  and  _353
REMARK  138  A    between atoms: _352  and  _355
REMARK  139  A    between atoms: _355  and  _356
REMARK  140  A    between atoms: _356  and  _357
REMARK  141  A    between atoms: _360  and  _362
REMARK  142  A    between atoms: _362  and  _363
REMARK  143  A    between atoms: _362  and  _365
REMARK  144  A    between atoms: _365  and  _366
REMARK  145  A    between atoms: _366  and  _367
REMARK  146  A    between atoms: _367  and  _368
REMARK  147  A    between atoms: _368  and  _369
REMARK  148  A    between atoms: _373  and  _375
REMARK  149  A    between atoms: _375  and  _376
REMARK  150  A    between atoms: _375  and  _378
REMARK  151  A    between atoms: _378  and  _379
REMARK  152  A    between atoms: _390  and  _391
REMARK  153  A    between atoms: _396  and  _398
REMARK  154  A    between atoms: _398  and  _399
REMARK  155  A    between atoms: _401  and  _403
REMARK  156  A    between atoms: _403  and  _404
REMARK  157  A    between atoms: _403  and  _406
REMARK  158  A    between atoms: _406  and  _407
REMARK  159  A    between atoms: _410  and  _412
REMARK  160  A    between atoms: _412  and  _413
REMARK  161  A    between atoms: _412  and  _415
REMARK  162  A    between atoms: _415  and  _416
REMARK  163  A    between atoms: _418  and  _420
REMARK  164  A    between atoms: _420  and  _421
REMARK  165  A    between atoms: _420  and  _423
REMARK  166  A    between atoms: _423  and  _424
REMARK  167  A    between atoms: _429  and  _430
REMARK  168  A    between atoms: _432  and  _434
REMARK  169  A    between atoms: _434  and  _435
REMARK  170  A    between atoms: _434  and  _437
REMARK  171  A    between atoms: _437  and  _438
REMARK  172  A    between atoms: _444  and  _446
REMARK  173  A    between atoms: _446  and  _447
REMARK  174  A    between atoms: _446  and  _449
REMARK  175  A    between atoms: _449  and  _450
REMARK  176  A    between atoms: _450  and  _451
REMARK  177  A    between atoms: _454  and  _456
REMARK  178  A    between atoms: _456  and  _457
REMARK  179  A    between atoms: _456  and  _459
REMARK  180  A    between atoms: _459  and  _460
REMARK  181  A    between atoms: _460  and  _461
REMARK  182  A    between atoms: _463  and  _465
REMARK  183  A    between atoms: _465  and  _466
REMARK  184  A    between atoms: _465  and  _468
REMARK  185  A    between atoms: _468  and  _469
REMARK  186  A    between atoms: _479  and  _481
REMARK  187  A    between atoms: _481  and  _482
REMARK  188  A    between atoms: _481  and  _484
REMARK  189  A    between atoms: _484  and  _485
REMARK  190  A    between atoms: _495  and  _497
REMARK  191  A    between atoms: _497  and  _498
REMARK  192  A    between atoms: _497  and  _500
REMARK  193  A    between atoms: _500  and  _501
REMARK  194  A    between atoms: _506  and  _508
REMARK  195  A    between atoms: _508  and  _509
REMARK  196  A    between atoms: _508  and  _511
REMARK  197  A    between atoms: _511  and  _512
REMARK  198  A    between atoms: _515  and  _517
REMARK  199  A    between atoms: _517  and  _518
REMARK  200  A    between atoms: _521  and  _523
REMARK  201  A    between atoms: _523  and  _524
REMARK  202  A    between atoms: _523  and  _526
REMARK  203  A    between atoms: _526  and  _527
REMARK  204  A    between atoms: _532  and  _533
REMARK  205  A    between atoms: _535  and  _537
REMARK  206  A    between atoms: _537  and  _538
REMARK  207  A    between atoms: _537  and  _540
REMARK  208  A    between atoms: _540  and  _541
REMARK  209  A    between atoms: _551  and  _553
REMARK  210  A    between atoms: _553  and  _554
REMARK  211  A    between atoms: _553  and  _556
REMARK  212  A    between atoms: _556  and  _557
REMARK  213  A    between atoms: _562  and  _564
REMARK  214  A    between atoms: _564  and  _565
REMARK  215  A    between atoms: _567  and  _569
REMARK  216  A    between atoms: _569  and  _570
REMARK  217  A    between atoms: _569  and  _572
REMARK  218  A    between atoms: _575  and  _577
REMARK  219  A    between atoms: _577  and  _578
REMARK  220  A    between atoms: _577  and  _580
REMARK  221  A    between atoms: _580  and  _581
REMARK  222  A    between atoms: _587  and  _589
REMARK  223  A    between atoms: _589  and  _590
REMARK  224  A    between atoms: _592  and  _594
REMARK  225  A    between atoms: _594  and  _595
REMARK  226  A    between atoms: _597  and  _599
REMARK  227  A    between atoms: _599  and  _600
REMARK  228  A    between atoms: _599  and  _602
REMARK  229  A    between atoms: _602  and  _603
REMARK  230  A    between atoms: _606  and  _608
REMARK  231  A    between atoms: _608  and  _609
REMARK  232  A    between atoms: _608  and  _611
REMARK  233  A    between atoms: _611  and  _612
REMARK  234  A    between atoms: _615  and  _617
REMARK  235  A    between atoms: _617  and  _618
REMARK  236  A    between atoms: _617  and  _620
REMARK  237  A    between atoms: _620  and  _621
REMARK  238  A    between atoms: _624  and  _626
REMARK  239  A    between atoms: _626  and  _627
REMARK  240  A    between atoms: _626  and  _629
REMARK  241  A    between atoms: _629  and  _630
REMARK  242  A    between atoms: _630  and  _631
REMARK                            x       y       z     vdW  Elec       q    Type
REMARK                         _______ _______ _______ _____ _____    ______ ____
ROOT
ATOM      1  O   HOH     1      -1.949  46.918  87.615  0.00  0.00    +0.000 OA
ENDROOT
TORSDOF 0
REMARK  Name = ../refined-set-2016/1k1y/1k1y_pocket.pdb
REMARK  242 active torsions:
REMARK  status: ('A' for Active; 'I' for Inactive)
REMARK    1  A    between atoms: _1  and  _3
REMARK    2  A    between atoms: _3  and  _4
REMARK    3  A    between atoms: _3  and  _6
REMARK    4  A    between atoms: _6  and  _7
REMARK    5  A    between atoms: _12  and  _14
REMARK    6  A    between atoms: _14  and  _15
REMARK    7  A    between atoms: _14  and  _17
REMARK    8  A    between atoms: _17  and  _18
REMARK    9  A    between atoms: _23  and  _25
REMARK   10  A    between atoms: _25  and  _26
REMARK   11  A    between atoms: _25  and  _28
REMARK   12  A    between atoms: _28  and  _29
REMARK   13  A    between atoms: _34  and  _36
REMARK   14  A    between atoms: _36  and  _37
REMARK   15  A    between atoms: _36  and  _39
REMARK   16  A    between atoms: _39  and  _40
REMARK   17  A    between atoms: _40  and  _41
REMARK   18  A    between atoms: _47  and  _48
REMARK   19  A    between atoms: _53  and  _55
REMARK   20  A    between atoms: _55  and  _56
REMARK   21  A    between atoms: _55  and  _58
REMARK   22  A    between atoms: _58  and  _59
REMARK   23  A    between atoms: _64  and  _66
REMARK   24  A    between atoms: _66  and  _67
REMARK   25  A    between atoms: _66  and  _69
REMARK   26  A    between atoms: _69  and  _70
REMARK   27  A    between atoms: _75  and  _76
REMARK   28  A    between atoms: _78  and  _80
REMARK   29  A    between atoms: _80  and  _81
REMARK   30  A    between atoms: _80  and  _83
REMARK   31  A    between atoms: _83  and  _84
REMARK   32  A    between atoms: _89  and  _91
REMARK   33  A    between atoms: _91  and  _92
REMARK   34  A    between atoms: _91  and  _94
REMARK   35  A    between atoms: _94  and  _95
REMARK   36  A    between atoms: _95  and  _96
REMARK   37  A    between atoms: _99  and  _101
REMARK   38  A    between atoms: _101  and  _102
REMARK   39  A    between atoms: _101  and  _104
REMARK   40  A    between atoms: _104  and  _105
REMARK   41  A    between atoms: _115  and  _117
REMARK   42  A    between atoms: _117  and  _118
REMARK   43  A    between atoms: _117  and  _120
REMARK   44  A    between atoms: _120  and  _121
REMARK   45  A    between atoms: _124  and  _126
REMARK   46  A    between atoms: _126  and  _127
REMARK   47  A    between atoms: _126  and  _129
REMARK   48  A    between atoms: _129  and  _130
REMARK   49  A    between atoms: _133  and  _135
REMARK   50  A    between atoms: _135  and  _136
REMARK   51  A    between atoms: _135  and  _138
REMARK   52  A    between atoms: _138  and  _139
REMARK   53  A    between atoms: _139  and  _140
REMARK   54  A    between atoms: _143  and  _145
REMARK   55  A    between atoms: _145  and  _146
REMARK   56  A    between atoms: _145  and  _148
REMARK   57  A    between atoms: _148  and  _149
REMARK   58  A    between atoms: _149  and  _150
REMARK   59  A    between atoms: _150  and  _151
REMARK   60  A    between atoms: _160  and  _162
REMARK   61  A    between atoms: _162  and  _163
REMARK   62  A    between atoms: _162  and  _165
REMARK   63  A    between atoms: _165  and  _166
REMARK   64  A    between atoms: _169  and  _171
REMARK   65  A    between atoms: _171  and  _172
REMARK   66  A    between atoms: _171  and  _174
REMARK   67  A    between atoms: _174  and  _175
REMARK   68  A    between atoms: _178  and  _180
REMARK   69  A    between atoms: _180  and  _181
REMARK   70  A    between atoms: _180  and  _183
REMARK   71  A    between atoms: _183  and  _184
REMARK   72  A    between atoms: _187  and  _189
REMARK   73  A    between atoms: _189  and  _190
REMARK   74  A    between atoms: _189  and  _192
REMARK   75  A    between atoms: _192  and  _193
REMARK   76  A    between atoms: _193  and  _194
REMARK   77  A    between atoms: _197  and  _199
REMARK   78  A    between atoms: _199  and  _200
REMARK   79  A    between atoms: _199  and  _202
REMARK   80  A    between atoms: _202  and  _203
REMARK   81  A    between atoms: _203  and  _204
REMARK   82  A    between atoms: _204  and  _205
REMARK   83  A    between atoms: _205  and  _206
REMARK   84  A    between atoms: _210  and  _212
REMARK   85  A    between atoms: _212  and  _213
REMARK   86  A    between atoms: _212  and  _215
REMARK   87  A    between atoms: _215  and  _216
REMARK   88  A    between atoms: _219  and  _221
REMARK   89  A    between atoms: _221  and  _222
REMARK   90  A    between atoms: _221  and  _224
REMARK   91  A    between atoms: _224  and  _225
REMARK   92  A    between atoms: _225  and  _226
REMARK   93  A    between atoms: _226  and  _227
REMARK   94  A    between atoms: _236  and  _238
REMARK   95  A    between atoms: _238  and  _239
REMARK   96  A    between atoms: _238  and  _241
REMARK   97  A    between atoms: _241  and  _242
REMARK   98  A    between atoms: _247  and  _248
REMARK   99  A    between atoms: _250  and  _252
REMARK  100  A    between atoms: _252  and  _253
REMARK  101  A    between atoms: _252  and  _255
REMARK  102  A    between atoms: _255  and  _256
REMARK  103  A    between atoms: _259  and  _261
REMARK  104  A    between atoms: _261  and  _262
REMARK  105  A    between atoms: _261  and  _264
REMARK  106  A    between atoms: _264  and  _265
REMARK  107  A    between atoms: _269  and  _270
REMARK  108  A    between atoms: _275  and  _277
REMARK  109  A    between atoms: _277  and  _278
REMARK  110  A    between atoms: _277  and  _280
REMARK  111  A    between atoms: _280  and  _281
REMARK  112  A    between atoms: _287  and  _289
REMARK  113  A    between atoms: _289  and  _290
REMARK  114  A    between atoms: _289  and  _292
REMARK  115  A    between atoms: _292  and  _293
REMARK  116  A    between atoms: _293  and  _294
REMARK  117  A    between atoms: _294  and  _295
REMARK  118  A    between atoms: _304  and  _306
REMARK  119  A    between atoms: _306  and  _307
REMARK  120  A    between atoms: _306  and  _309
REMARK  121  A    between atoms: _309  and  _310
REMARK  122  A    between atoms: _316  and  _318
REMARK  123  A    between atoms: _318  and  _319
REMARK  124  A    between atoms: _318  and  _321
REMARK  125  A    between atoms: _321  and  _322
REMARK  126  A    between atoms: _327  and  _329
REMARK  127  A    between atoms: _329  and  _330
REMARK  128  A    between atoms: _329  and  _332
REMARK  129  A    between atoms: _332  and  _333
REMARK  130  A    between atoms: _336  and  _338
REMARK  131  A    between atoms: _338  and  _339
REMARK  132  A    between atoms: _338  and  _341
REMARK  133  A    between atoms: _341  and  _342
REMARK  134  A    between atoms: _345  and  _347
REMARK  135  A    between atoms: _347  and  _348
REMARK  136  A    between atoms: _350  and  _352
REMARK  137  A    between atoms: _352  and  _353
REMARK  138  A    between atoms: _352  and  _355
REMARK  139  A    between atoms: _355  and  _356
REMARK  140  A    between atoms: _356  and  _357
REMARK  141  A    between atoms: _360  and  _362
REMARK  142  A    between atoms: _362  and  _363
REMARK  143  A    between atoms: _362  and  _365
REMARK  144  A    between atoms: _365  and  _366
REMARK  145  A    between atoms: _366  and  _367
REMARK  146  A    between atoms: _367  and  _368
REMARK  147  A    between atoms: _368  and  _369
REMARK  148  A    between atoms: _373  and  _375
REMARK  149  A    between atoms: _375  and  _376
REMARK  150  A    between atoms: _375  and  _378
REMARK  151  A    between atoms: _378  and  _379
REMARK  152  A    between atoms: _390  and  _391
REMARK  153  A    between atoms: _396  and  _398
REMARK  154  A    between atoms: _398  and  _399
REMARK  155  A    between atoms: _401  and  _403
REMARK  156  A    between atoms: _403  and  _404
REMARK  157  A    between atoms: _403  and  _406
REMARK  158  A    between atoms: _406  and  _407
REMARK  159  A    between atoms: _410  and  _412
REMARK  160  A    between atoms: _412  and  _413
REMARK  161  A    between atoms: _412  and  _415
REMARK  162  A    between atoms: _415  and  _416
REMARK  163  A    between atoms: _418  and  _420
REMARK  164  A    between atoms: _420  and  _421
REMARK  165  A    between atoms: _420  and  _423
REMARK  166  A    between atoms: _423  and  _424
REMARK  167  A    between atoms: _429  and  _430
REMARK  168  A    between atoms: _432  and  _434
REMARK  169  A    between atoms: _434  and  _435
REMARK  170  A    between atoms: _434  and  _437
REMARK  171  A    between atoms: _437  and  _438
REMARK  172  A    between atoms: _444  and  _446
REMARK  173  A    between atoms: _446  and  _447
REMARK  174  A    between atoms: _446  and  _449
REMARK  175  A    between atoms: _449  and  _450
REMARK  176  A    between atoms: _450  and  _451
REMARK  177  A    between atoms: _454  and  _456
REMARK  178  A    between atoms: _456  and  _457
REMARK  179  A    between atoms: _456  and  _459
REMARK  180  A    between atoms: _459  and  _460
REMARK  181  A    between atoms: _460  and  _461
REMARK  182  A    between atoms: _463  and  _465
REMARK  183  A    between atoms: _465  and  _466
REMARK  184  A    between atoms: _465  and  _468
REMARK  185  A    between atoms: _468  and  _469
REMARK  186  A    between atoms: _479  and  _481
REMARK  187  A    between atoms: _481  and  _482
REMARK  188  A    between atoms: _481  and  _484
REMARK  189  A    between atoms: _484  and  _485
REMARK  190  A    between atoms: _495  and  _497
REMARK  191  A    between atoms: _497  and  _498
REMARK  192  A    between atoms: _497  and  _500
REMARK  193  A    between atoms: _500  and  _501
REMARK  194  A    between atoms: _506  and  _508
REMARK  195  A    between atoms: _508  and  _509
REMARK  196  A    between atoms: _508  and  _511
REMARK  197  A    between atoms: _511  and  _512
REMARK  198  A    between atoms: _515  and  _517
REMARK  199  A    between atoms: _517  and  _518
REMARK  200  A    between atoms: _521  and  _523
REMARK  201  A    between atoms: _523  and  _524
REMARK  202  A    between atoms: _523  and  _526
REMARK  203  A    between atoms: _526  and  _527
REMARK  204  A    between atoms: _532  and  _533
REMARK  205  A    between atoms: _535  and  _537
REMARK  206  A    between atoms: _537  and  _538
REMARK  207  A    between atoms: _537  and  _540
REMARK  208  A    between atoms: _540  and  _541
REMARK  209  A    between atoms: _551  and  _553
REMARK  210  A    between atoms: _553  and  _554
REMARK  211  A    between atoms: _553  and  _556
REMARK  212  A    between atoms: _556  and  _557
REMARK  213  A    between atoms: _562  and  _564
REMARK  214  A    between atoms: _564  and  _565
REMARK  215  A    between atoms: _567  and  _569
REMARK  216  A    between atoms: _569  and  _570
REMARK  217  A    between atoms: _569  and  _572
REMARK  218  A    between atoms: _575  and  _577
REMARK  219  A    between atoms: _577  and  _578
REMARK  220  A    between atoms: _577  and  _580
REMARK  221  A    between atoms: _580  and  _581
REMARK  222  A    between atoms: _587  and  _589
REMARK  223  A    between atoms: _589  and  _590
REMARK  224  A    between atoms: _592  and  _594
REMARK  225  A    between atoms: _594  and  _595
REMARK  226  A    between atoms: _597  and  _599
REMARK  227  A    between atoms: _599  and  _600
REMARK  228  A    between atoms: _599  and  _602
REMARK  229  A    between atoms: _602  and  _603
REMARK  230  A    between atoms: _606  and  _608
REMARK  231  A    between atoms: _608  and  _609
REMARK  232  A    between atoms: _608  and  _611
REMARK  233  A    between atoms: _611  and  _612
REMARK  234  A    between atoms: _615  and  _617
REMARK  235  A    between atoms: _617  and  _618
REMARK  236  A    between atoms: _617  and  _620
REMARK  237  A    between atoms: _620  and  _621
REMARK  238  A    between atoms: _624  and  _626
REMARK  239  A    between atoms: _626  and  _627
REMARK  240  A    between atoms: _626  and  _629
REMARK  241  A    between atoms: _629  and  _630
REMARK  242  A    between atoms: _630  and  _631
REMARK                            x       y       z     vdW  Elec       q    Type
REMARK                         _______ _______ _______ _____ _____    ______ ____
ROOT
ATOM      1  O   HOH     1      -6.055  61.877  96.028  0.00  0.00    +0.000 OA
ENDROOT
TORSDOF 0
REMARK  Name = ../refined-set-2016/1k1y/1k1y_pocket.pdb
REMARK  242 active torsions:
REMARK  status: ('A' for Active; 'I' for Inactive)
REMARK    1  A    between atoms: _1  and  _3
REMARK    2  A    between atoms: _3  and  _4
REMARK    3  A    between atoms: _3  and  _6
REMARK    4  A    between atoms: _6  and  _7
REMARK    5  A    between atoms: _12  and  _14
REMARK    6  A    between atoms: _14  and  _15
REMARK    7  A    between atoms: _14  and  _17
REMARK    8  A    between atoms: _17  and  _18
REMARK    9  A    between atoms: _23  and  _25
REMARK   10  A    between atoms: _25  and  _26
REMARK   11  A    between atoms: _25  and  _28
REMARK   12  A    between atoms: _28  and  _29
REMARK   13  A    between atoms: _34  and  _36
REMARK   14  A    between atoms: _36  and  _37
REMARK   15  A    between atoms: _36  and  _39
REMARK   16  A    between atoms: _39  and  _40
REMARK   17  A    between atoms: _40  and  _41
REMARK   18  A    between atoms: _47  and  _48
REMARK   19  A    between atoms: _53  and  _55
REMARK   20  A    between atoms: _55  and  _56
REMARK   21  A    between atoms: _55  and  _58
REMARK   22  A    between atoms: _58  and  _59
REMARK   23  A    between atoms: _64  and  _66
REMARK   24  A    between atoms: _66  and  _67
REMARK   25  A    between atoms: _66  and  _69
REMARK   26  A    between atoms: _69  and  _70
REMARK   27  A    between atoms: _75  and  _76
REMARK   28  A    between atoms: _78  and  _80
REMARK   29  A    between atoms: _80  and  _81
REMARK   30  A    between atoms: _80  and  _83
REMARK   31  A    between atoms: _83  and  _84
REMARK   32  A    between atoms: _89  and  _91
REMARK   33  A    between atoms: _91  and  _92
REMARK   34  A    between atoms: _91  and  _94
REMARK   35  A    between atoms: _94  and  _95
REMARK   36  A    between atoms: _95  and  _96
REMARK   37  A    between atoms: _99  and  _101
REMARK   38  A    between atoms: _101  and  _102
REMARK   39  A    between atoms: _101  and  _104
REMARK   40  A    between atoms: _104  and  _105
REMARK   41  A    between atoms: _115  and  _117
REMARK   42  A    between atoms: _117  and  _118
REMARK   43  A    between atoms: _117  and  _120
REMARK   44  A    between atoms: _120  and  _121
REMARK   45  A    between atoms: _124  and  _126
REMARK   46  A    between atoms: _126  and  _127
REMARK   47  A    between atoms: _126  and  _129
REMARK   48  A    between atoms: _129  and  _130
REMARK   49  A    between atoms: _133  and  _135
REMARK   50  A    between atoms: _135  and  _136
REMARK   51  A    between atoms: _135  and  _138
REMARK   52  A    between atoms: _138  and  _139
REMARK   53  A    between atoms: _139  and  _140
REMARK   54  A    between atoms: _143  and  _145
REMARK   55  A    between atoms: _145  and  _146
REMARK   56  A    between atoms: _145  and  _148
REMARK   57  A    between atoms: _148  and  _149
REMARK   58  A    between atoms: _149  and  _150
REMARK   59  A    between atoms: _150  and  _151
REMARK   60  A    between atoms: _160  and  _162
REMARK   61  A    between atoms: _162  and  _163
REMARK   62  A    between atoms: _162  and  _165
REMARK   63  A    between atoms: _165  and  _166
REMARK   64  A    between atoms: _169  and  _171
REMARK   65  A    between atoms: _171  and  _172
REMARK   66  A    between atoms: _171  and  _174
REMARK   67  A    between atoms: _174  and  _175
REMARK   68  A    between atoms: _178  and  _180
REMARK   69  A    between atoms: _180  and  _181
REMARK   70  A    between atoms: _180  and  _183
REMARK   71  A    between atoms: _183  and  _184
REMARK   72  A    between atoms: _187  and  _189
REMARK   73  A    between atoms: _189  and  _190
REMARK   74  A    between atoms: _189  and  _192
REMARK   75  A    between atoms: _192  and  _193
REMARK   76  A    between atoms: _193  and  _194
REMARK   77  A    between atoms: _197  and  _199
REMARK   78  A    between atoms: _199  and  _200
REMARK   79  A    between atoms: _199  and  _202
REMARK   80  A    between atoms: _202  and  _203
REMARK   81  A    between atoms: _203  and  _204
REMARK   82  A    between atoms: _204  and  _205
REMARK   83  A    between atoms: _205  and  _206
REMARK   84  A    between atoms: _210  and  _212
REMARK   85  A    between atoms: _212  and  _213
REMARK   86  A    between atoms: _212  and  _215
REMARK   87  A    between atoms: _215  and  _216
REMARK   88  A    between atoms: _219  and  _221
REMARK   89  A    between atoms: _221  and  _222
REMARK   90  A    between atoms: _221  and  _224
REMARK   91  A    between atoms: _224  and  _225
REMARK   92  A    between atoms: _225  and  _226
REMARK   93  A    between atoms: _226  and  _227
REMARK   94  A    between atoms: _236  and  _238
REMARK   95  A    between atoms: _238  and  _239
REMARK   96  A    between atoms: _238  and  _241
REMARK   97  A    between atoms: _241  and  _242
REMARK   98  A    between atoms: _247  and  _248
REMARK   99  A    between atoms: _250  and  _252
REMARK  100  A    between atoms: _252  and  _253
REMARK  101  A    between atoms: _252  and  _255
REMARK  102  A    between atoms: _255  and  _256
REMARK  103  A    between atoms: _259  and  _261
REMARK  104  A    between atoms: _261  and  _262
REMARK  105  A    between atoms: _261  and  _264
REMARK  106  A    between atoms: _264  and  _265
REMARK  107  A    between atoms: _269  and  _270
REMARK  108  A    between atoms: _275  and  _277
REMARK  109  A    between atoms: _277  and  _278
REMARK  110  A    between atoms: _277  and  _280
REMARK  111  A    between atoms: _280  and  _281
REMARK  112  A    between atoms: _287  and  _289
REMARK  113  A    between atoms: _289  and  _290
REMARK  114  A    between atoms: _289  and  _292
REMARK  115  A    between atoms: _292  and  _293
REMARK  116  A    between atoms: _293  and  _294
REMARK  117  A    between atoms: _294  and  _295
REMARK  118  A    between atoms: _304  and  _306
REMARK  119  A    between atoms: _306  and  _307
REMARK  120  A    between atoms: _306  and  _309
REMARK  121  A    between atoms: _309  and  _310
REMARK  122  A    between atoms: _316  and  _318
REMARK  123  A    between atoms: _318  and  _319
REMARK  124  A    between atoms: _318  and  _321
REMARK  125  A    between atoms: _321  and  _322
REMARK  126  A    between atoms: _327  and  _329
REMARK  127  A    between atoms: _329  and  _330
REMARK  128  A    between atoms: _329  and  _332
REMARK  129  A    between atoms: _332  and  _333
REMARK  130  A    between atoms: _336  and  _338
REMARK  131  A    between atoms: _338  and  _339
REMARK  132  A    between atoms: _338  and  _341
REMARK  133  A    between atoms: _341  and  _342
REMARK  134  A    between atoms: _345  and  _347
REMARK  135  A    between atoms: _347  and  _348
REMARK  136  A    between atoms: _350  and  _352
REMARK  137  A    between atoms: _352  and  _353
REMARK  138  A    between atoms: _352  and  _355
REMARK  139  A    between atoms: _355  and  _356
REMARK  140  A    between atoms: _356  and  _357
REMARK  141  A    between atoms: _360  and  _362
REMARK  142  A    between atoms: _362  and  _363
REMARK  143  A    between atoms: _362  and  _365
REMARK  144  A    between atoms: _365  and  _366
REMARK  145  A    between atoms: _366  and  _367
REMARK  146  A    between atoms: _367  and  _368
REMARK  147  A    between atoms: _368  and  _369
REMARK  148  A    between atoms: _373  and  _375
REMARK  149  A    between atoms: _375  and  _376
REMARK  150  A    between atoms: _375  and  _378
REMARK  151  A    between atoms: _378  and  _379
REMARK  152  A    between atoms: _390  and  _391
REMARK  153  A    between atoms: _396  and  _398
REMARK  154  A    between atoms: _398  and  _399
REMARK  155  A    between atoms: _401  and  _403
REMARK  156  A    between atoms: _403  and  _404
REMARK  157  A    between atoms: _403  and  _406
REMARK  158  A    between atoms: _406  and  _407
REMARK  159  A    between atoms: _410  and  _412
REMARK  160  A    between atoms: _412  and  _413
REMARK  161  A    between atoms: _412  and  _415
REMARK  162  A    between atoms: _415  and  _416
REMARK  163  A    between atoms: _418  and  _420
REMARK  164  A    between atoms: _420  and  _421
REMARK  165  A    between atoms: _420  and  _423
REMARK  166  A    between atoms: _423  and  _424
REMARK  167  A    between atoms: _429  and  _430
REMARK  168  A    between atoms: _432  and  _434
REMARK  169  A    between atoms: _434  and  _435
REMARK  170  A    between atoms: _434  and  _437
REMARK  171  A    between atoms: _437  and  _438
REMARK  172  A    between atoms: _444  and  _446
REMARK  173  A    between atoms: _446  and  _447
REMARK  174  A    between atoms: _446  and  _449
REMARK  175  A    between atoms: _449  and  _450
REMARK  176  A    between atoms: _450  and  _451
REMARK  177  A    between atoms: _454  and  _456
REMARK  178  A    between atoms: _456  and  _457
REMARK  179  A    between atoms: _456  and  _459
REMARK  180  A    between atoms: _459  and  _460
REMARK  181  A    between atoms: _460  and  _461
REMARK  182  A    between atoms: _463  and  _465
REMARK  183  A    between atoms: _465  and  _466
REMARK  184  A    between atoms: _465  and  _468
REMARK  185  A    between atoms: _468  and  _469
REMARK  186  A    between atoms: _479  and  _481
REMARK  187  A    between atoms: _481  and  _482
REMARK  188  A    between atoms: _481  and  _484
REMARK  189  A    between atoms: _484  and  _485
REMARK  190  A    between atoms: _495  and  _497
REMARK  191  A    between atoms: _497  and  _498
REMARK  192  A    between atoms: _497  and  _500
REMARK  193  A    between atoms: _500  and  _501
REMARK  194  A    between atoms: _506  and  _508
REMARK  195  A    between atoms: _508  and  _509
REMARK  196  A    between atoms: _508  and  _511
REMARK  197  A    between atoms: _511  and  _512
REMARK  198  A    between atoms: _515  and  _517
REMARK  199  A    between atoms: _517  and  _518
REMARK  200  A    between atoms: _521  and  _523
REMARK  201  A    between atoms: _523  and  _524
REMARK  202  A    between atoms: _523  and  _526
REMARK  203  A    between atoms: _526  and  _527
REMARK  204  A    between atoms: _532  and  _533
REMARK  205  A    between atoms: _535  and  _537
REMARK  206  A    between atoms: _537  and  _538
REMARK  207  A    between atoms: _537  and  _540
REMARK  208  A    between atoms: _540  and  _541
REMARK  209  A    between atoms: _551  and  _553
REMARK  210  A    between atoms: _553  and  _554
REMARK  211  A    between atoms: _553  and  _556
REMARK  212  A    between atoms: _556  and  _557
REMARK  213  A    between atoms: _562  and  _564
REMARK  214  A    between atoms: _564  and  _565
REMARK  215  A    between atoms: _567  and  _569
REMARK  216  A    between atoms: _569  and  _570
REMARK  217  A    between atoms: _569  and  _572
REMARK  218  A    between atoms: _575  and  _577
REMARK  219  A    between atoms: _577  and  _578
REMARK  220  A    between atoms: _577  and  _580
REMARK  221  A    between atoms: _580  and  _581
REMARK  222  A    between atoms: _587  and  _589
REMARK  223  A    between atoms: _589  and  _590
REMARK  224  A    between atoms: _592  and  _594
REMARK  225  A    between atoms: _594  and  _595
REMARK  226  A    between atoms: _597  and  _599
REMARK  227  A    between atoms: _599  and  _600
REMARK  228  A    between atoms: _599  and  _602
REMARK  229  A    between atoms: _602  and  _603
REMARK  230  A    between atoms: _606  and  _608
REMARK  231  A    between atoms: _608  and  _609
REMARK  232  A    between atoms: _608  and  _611
REMARK  233  A    between atoms: _611  and  _612
REMARK  234  A    between atoms: _615  and  _617
REMARK  235  A    between atoms: _617  and  _618
REMARK  236  A    between atoms: _617  and  _620
REMARK  237  A    between atoms: _620  and  _621
REMARK  238  A    between atoms: _624  and  _626
REMARK  239  A    between atoms: _626  and  _627
REMARK  240  A    between atoms: _626  and  _629
REMARK  241  A    between atoms: _629  and  _630
REMARK  242  A    between atoms: _630  and  _631
REMARK                            x       y       z     vdW  Elec       q    Type
REMARK                         _______ _______ _______ _____ _____    ______ ____
ROOT
ATOM      1  O   HOH     1       2.913  60.112  91.428  0.00  0.00    +0.000 OA
ENDROOT
TORSDOF 0
REMARK  Name = ../refined-set-2016/1k1y/1k1y_pocket.pdb
REMARK  242 active torsions:
REMARK  status: ('A' for Active; 'I' for Inactive)
REMARK    1  A    between atoms: _1  and  _3
REMARK    2  A    between atoms: _3  and  _4
REMARK    3  A    between atoms: _3  and  _6
REMARK    4  A    between atoms: _6  and  _7
REMARK    5  A    between atoms: _12  and  _14
REMARK    6  A    between atoms: _14  and  _15
REMARK    7  A    between atoms: _14  and  _17
REMARK    8  A    between atoms: _17  and  _18
REMARK    9  A    between atoms: _23  and  _25
REMARK   10  A    between atoms: _25  and  _26
REMARK   11  A    between atoms: _25  and  _28
REMARK   12  A    between atoms: _28  and  _29
REMARK   13  A    between atoms: _34  and  _36
REMARK   14  A    between atoms: _36  and  _37
REMARK   15  A    between atoms: _36  and  _39
REMARK   16  A    between atoms: _39  and  _40
REMARK   17  A    between atoms: _40  and  _41
REMARK   18  A    between atoms: _47  and  _48
REMARK   19  A    between atoms: _53  and  _55
REMARK   20  A    between atoms: _55  and  _56
REMARK   21  A    between atoms: _55  and  _58
REMARK   22  A    between atoms: _58  and  _59
REMARK   23  A    between atoms: _64  and  _66
REMARK   24  A    between atoms: _66  and  _67
REMARK   25  A    between atoms: _66  and  _69
REMARK   26  A    between atoms: _69  and  _70
REMARK   27  A    between atoms: _75  and  _76
REMARK   28  A    between atoms: _78  and  _80
REMARK   29  A    between atoms: _80  and  _81
REMARK   30  A    between atoms: _80  and  _83
REMARK   31  A    between atoms: _83  and  _84
REMARK   32  A    between atoms: _89  and  _91
REMARK   33  A    between atoms: _91  and  _92
REMARK   34  A    between atoms: _91  and  _94
REMARK   35  A    between atoms: _94  and  _95
REMARK   36  A    between atoms: _95  and  _96
REMARK   37  A    between atoms: _99  and  _101
REMARK   38  A    between atoms: _101  and  _102
REMARK   39  A    between atoms: _101  and  _104
REMARK   40  A    between atoms: _104  and  _105
REMARK   41  A    between atoms: _115  and  _117
REMARK   42  A    between atoms: _117  and  _118
REMARK   43  A    between atoms: _117  and  _120
REMARK   44  A    between atoms: _120  and  _121
REMARK   45  A    between atoms: _124  and  _126
REMARK   46  A    between atoms: _126  and  _127
REMARK   47  A    between atoms: _126  and  _129
REMARK   48  A    between atoms: _129  and  _130
REMARK   49  A    between atoms: _133  and  _135
REMARK   50  A    between atoms: _135  and  _136
REMARK   51  A    between atoms: _135  and  _138
REMARK   52  A    between atoms: _138  and  _139
REMARK   53  A    between atoms: _139  and  _140
REMARK   54  A    between atoms: _143  and  _145
REMARK   55  A    between atoms: _145  and  _146
REMARK   56  A    between atoms: _145  and  _148
REMARK   57  A    between atoms: _148  and  _149
REMARK   58  A    between atoms: _149  and  _150
REMARK   59  A    between atoms: _150  and  _151
REMARK   60  A    between atoms: _160  and  _162
REMARK   61  A    between atoms: _162  and  _163
REMARK   62  A    between atoms: _162  and  _165
REMARK   63  A    between atoms: _165  and  _166
REMARK   64  A    between atoms: _169  and  _171
REMARK   65  A    between atoms: _171  and  _172
REMARK   66  A    between atoms: _171  and  _174
REMARK   67  A    between atoms: _174  and  _175
REMARK   68  A    between atoms: _178  and  _180
REMARK   69  A    between atoms: _180  and  _181
REMARK   70  A    between atoms: _180  and  _183
REMARK   71  A    between atoms: _183  and  _184
REMARK   72  A    between atoms: _187  and  _189
REMARK   73  A    between atoms: _189  and  _190
REMARK   74  A    between atoms: _189  and  _192
REMARK   75  A    between atoms: _192  and  _193
REMARK   76  A    between atoms: _193  and  _194
REMARK   77  A    between atoms: _197  and  _199
REMARK   78  A    between atoms: _199  and  _200
REMARK   79  A    between atoms: _199  and  _202
REMARK   80  A    between atoms: _202  and  _203
REMARK   81  A    between atoms: _203  and  _204
REMARK   82  A    between atoms: _204  and  _205
REMARK   83  A    between atoms: _205  and  _206
REMARK   84  A    between atoms: _210  and  _212
REMARK   85  A    between atoms: _212  and  _213
REMARK   86  A    between atoms: _212  and  _215
REMARK   87  A    between atoms: _215  and  _216
REMARK   88  A    between atoms: _219  and  _221
REMARK   89  A    between atoms: _221  and  _222
REMARK   90  A    between atoms: _221  and  _224
REMARK   91  A    between atoms: _224  and  _225
REMARK   92  A    between atoms: _225  and  _226
REMARK   93  A    between atoms: _226  and  _227
REMARK   94  A    between atoms: _236  and  _238
REMARK   95  A    between atoms: _238  and  _239
REMARK   96  A    between atoms: _238  and  _241
REMARK   97  A    between atoms: _241  and  _242
REMARK   98  A    between atoms: _247  and  _248
REMARK   99  A    between atoms: _250  and  _252
REMARK  100  A    between atoms: _252  and  _253
REMARK  101  A    between atoms: _252  and  _255
REMARK  102  A    between atoms: _255  and  _256
REMARK  103  A    between atoms: _259  and  _261
REMARK  104  A    between atoms: _261  and  _262
REMARK  105  A    between atoms: _261  and  _264
REMARK  106  A    between atoms: _264  and  _265
REMARK  107  A    between atoms: _269  and  _270
REMARK  108  A    between atoms: _275  and  _277
REMARK  109  A    between atoms: _277  and  _278
REMARK  110  A    between atoms: _277  and  _280
REMARK  111  A    between atoms: _280  and  _281
REMARK  112  A    between atoms: _287  and  _289
REMARK  113  A    between atoms: _289  and  _290
REMARK  114  A    between atoms: _289  and  _292
REMARK  115  A    between atoms: _292  and  _293
REMARK  116  A    between atoms: _293  and  _294
REMARK  117  A    between atoms: _294  and  _295
REMARK  118  A    between atoms: _304  and  _306
REMARK  119  A    between atoms: _306  and  _307
REMARK  120  A    between atoms: _306  and  _309
REMARK  121  A    between atoms: _309  and  _310
REMARK  122  A    between atoms: _316  and  _318
REMARK  123  A    between atoms: _318  and  _319
REMARK  124  A    between atoms: _318  and  _321
REMARK  125  A    between atoms: _321  and  _322
REMARK  126  A    between atoms: _327  and  _329
REMARK  127  A    between atoms: _329  and  _330
REMARK  128  A    between atoms: _329  and  _332
REMARK  129  A    between atoms: _332  and  _333
REMARK  130  A    between atoms: _336  and  _338
REMARK  131  A    between atoms: _338  and  _339
REMARK  132  A    between atoms: _338  and  _341
REMARK  133  A    between atoms: _341  and  _342
REMARK  134  A    between atoms: _345  and  _347
REMARK  135  A    between atoms: _347  and  _348
REMARK  136  A    between atoms: _350  and  _352
REMARK  137  A    between atoms: _352  and  _353
REMARK  138  A    between atoms: _352  and  _355
REMARK  139  A    between atoms: _355  and  _356
REMARK  140  A    between atoms: _356  and  _357
REMARK  141  A    between atoms: _360  and  _362
REMARK  142  A    between atoms: _362  and  _363
REMARK  143  A    between atoms: _362  and  _365
REMARK  144  A    between atoms: _365  and  _366
REMARK  145  A    between atoms: _366  and  _367
REMARK  146  A    between atoms: _367  and  _368
REMARK  147  A    between atoms: _368  and  _369
REMARK  148  A    between atoms: _373  and  _375
REMARK  149  A    between atoms: _375  and  _376
REMARK  150  A    between atoms: _375  and  _378
REMARK  151  A    between atoms: _378  and  _379
REMARK  152  A    between atoms: _390  and  _391
REMARK  153  A    between atoms: _396  and  _398
REMARK  154  A    between atoms: _398  and  _399
REMARK  155  A    between atoms: _401  and  _403
REMARK  156  A    between atoms: _403  and  _404
REMARK  157  A    between atoms: _403  and  _406
REMARK  158  A    between atoms: _406  and  _407
REMARK  159  A    between atoms: _410  and  _412
REMARK  160  A    between atoms: _412  and  _413
REMARK  161  A    between atoms: _412  and  _415
REMARK  162  A    between atoms: _415  and  _416
REMARK  163  A    between atoms: _418  and  _420
REMARK  164  A    between atoms: _420  and  _421
REMARK  165  A    between atoms: _420  and  _423
REMARK  166  A    between atoms: _423  and  _424
REMARK  167  A    between atoms: _429  and  _430
REMARK  168  A    between atoms: _432  and  _434
REMARK  169  A    between atoms: _434  and  _435
REMARK  170  A    between atoms: _434  and  _437
REMARK  171  A    between atoms: _437  and  _438
REMARK  172  A    between atoms: _444  and  _446
REMARK  173  A    between atoms: _446  and  _447
REMARK  174  A    between atoms: _446  and  _449
REMARK  175  A    between atoms: _449  and  _450
REMARK  176  A    between atoms: _450  and  _451
REMARK  177  A    between atoms: _454  and  _456
REMARK  178  A    between atoms: _456  and  _457
REMARK  179  A    between atoms: _456  and  _459
REMARK  180  A    between atoms: _459  and  _460
REMARK  181  A    between atoms: _460  and  _461
REMARK  182  A    between atoms: _463  and  _465
REMARK  183  A    between atoms: _465  and  _466
REMARK  184  A    between atoms: _465  and  _468
REMARK  185  A    between atoms: _468  and  _469
REMARK  186  A    between atoms: _479  and  _481
REMARK  187  A    between atoms: _481  and  _482
REMARK  188  A    between atoms: _481  and  _484
REMARK  189  A    between atoms: _484  and  _485
REMARK  190  A    between atoms: _495  and  _497
REMARK  191  A    between atoms: _497  and  _498
REMARK  192  A    between atoms: _497  and  _500
REMARK  193  A    between atoms: _500  and  _501
REMARK  194  A    between atoms: _506  and  _508
REMARK  195  A    between atoms: _508  and  _509
REMARK  196  A    between atoms: _508  and  _511
REMARK  197  A    between atoms: _511  and  _512
REMARK  198  A    between atoms: _515  and  _517
REMARK  199  A    between atoms: _517  and  _518
REMARK  200  A    between atoms: _521  and  _523
REMARK  201  A    between atoms: _523  and  _524
REMARK  202  A    between atoms: _523  and  _526
REMARK  203  A    between atoms: _526  and  _527
REMARK  204  A    between atoms: _532  and  _533
REMARK  205  A    between atoms: _535  and  _537
REMARK  206  A    between atoms: _537  and  _538
REMARK  207  A    between atoms: _537  and  _540
REMARK  208  A    between atoms: _540  and  _541
REMARK  209  A    between atoms: _551  and  _553
REMARK  210  A    between atoms: _553  and  _554
REMARK  211  A    between atoms: _553  and  _556
REMARK  212  A    between atoms: _556  and  _557
REMARK  213  A    between atoms: _562  and  _564
REMARK  214  A    between atoms: _564  and  _565
REMARK  215  A    between atoms: _567  and  _569
REMARK  216  A    between atoms: _569  and  _570
REMARK  217  A    between atoms: _569  and  _572
REMARK  218  A    between atoms: _575  and  _577
REMARK  219  A    between atoms: _577  and  _578
REMARK  220  A    between atoms: _577  and  _580
REMARK  221  A    between atoms: _580  and  _581
REMARK  222  A    between atoms: _587  and  _589
REMARK  223  A    between atoms: _589  and  _590
REMARK  224  A    between atoms: _592  and  _594
REMARK  225  A    between atoms: _594  and  _595
REMARK  226  A    between atoms: _597  and  _599
REMARK  227  A    between atoms: _599  and  _600
REMARK  228  A    between atoms: _599  and  _602
REMARK  229  A    between atoms: _602  and  _603
REMARK  230  A    between atoms: _606  and  _608
REMARK  231  A    between atoms: _608  and  _609
REMARK  232  A    between atoms: _608  and  _611
REMARK  233  A    between atoms: _611  and  _612
REMARK  234  A    between atoms: _615  and  _617
REMARK  235  A    between atoms: _617  and  _618
REMARK  236  A    between atoms: _617  and  _620
REMARK  237  A    between atoms: _620  and  _621
REMARK  238  A    between atoms: _624  and  _626
REMARK  239  A    between atoms: _626  and  _627
REMARK  240  A    between atoms: _626  and  _629
REMARK  241  A    between atoms: _629  and  _630
REMARK  242  A    between atoms: _630  and  _631
REMARK                            x       y       z     vdW  Elec       q    Type
REMARK                         _______ _______ _______ _____ _____    ______ ____
ROOT
ATOM      1  O   HOH     1      -4.428  58.293  87.222  0.00  0.00    +0.000 OA
ENDROOT
TORSDOF 0
REMARK  Name = ../refined-set-2016/1k1y/1k1y_pocket.pdb
REMARK  242 active torsions:
REMARK  status: ('A' for Active; 'I' for Inactive)
REMARK    1  A    between atoms: _1  and  _3
REMARK    2  A    between atoms: _3  and  _4
REMARK    3  A    between atoms: _3  and  _6
REMARK    4  A    between atoms: _6  and  _7
REMARK    5  A    between atoms: _12  and  _14
REMARK    6  A    between atoms: _14  and  _15
REMARK    7  A    between atoms: _14  and  _17
REMARK    8  A    between atoms: _17  and  _18
REMARK    9  A    between atoms: _23  and  _25
REMARK   10  A    between atoms: _25  and  _26
REMARK   11  A    between atoms: _25  and  _28
REMARK   12  A    between atoms: _28  and  _29
REMARK   13  A    between atoms: _34  and  _36
REMARK   14  A    between atoms: _36  and  _37
REMARK   15  A    between atoms: _36  and  _39
REMARK   16  A    between atoms: _39  and  _40
REMARK   17  A    between atoms: _40  and  _41
REMARK   18  A    between atoms: _47  and  _48
REMARK   19  A    between atoms: _53  and  _55
REMARK   20  A    between atoms: _55  and  _56
REMARK   21  A    between atoms: _55  and  _58
REMARK   22  A    between atoms: _58  and  _59
REMARK   23  A    between atoms: _64  and  _66
REMARK   24  A    between atoms: _66  and  _67
REMARK   25  A    between atoms: _66  and  _69
REMARK   26  A    between atoms: _69  and  _70
REMARK   27  A    between atoms: _75  and  _76
REMARK   28  A    between atoms: _78  and  _80
REMARK   29  A    between atoms: _80  and  _81
REMARK   30  A    between atoms: _80  and  _83
REMARK   31  A    between atoms: _83  and  _84
REMARK   32  A    between atoms: _89  and  _91
REMARK   33  A    between atoms: _91  and  _92
REMARK   34  A    between atoms: _91  and  _94
REMARK   35  A    between atoms: _94  and  _95
REMARK   36  A    between atoms: _95  and  _96
REMARK   37  A    between atoms: _99  and  _101
REMARK   38  A    between atoms: _101  and  _102
REMARK   39  A    between atoms: _101  and  _104
REMARK   40  A    between atoms: _104  and  _105
REMARK   41  A    between atoms: _115  and  _117
REMARK   42  A    between atoms: _117  and  _118
REMARK   43  A    between atoms: _117  and  _120
REMARK   44  A    between atoms: _120  and  _121
REMARK   45  A    between atoms: _124  and  _126
REMARK   46  A    between atoms: _126  and  _127
REMARK   47  A    between atoms: _126  and  _129
REMARK   48  A    between atoms: _129  and  _130
REMARK   49  A    between atoms: _133  and  _135
REMARK   50  A    between atoms: _135  and  _136
REMARK   51  A    between atoms: _135  and  _138
REMARK   52  A    between atoms: _138  and  _139
REMARK   53  A    between atoms: _139  and  _140
REMARK   54  A    between atoms: _143  and  _145
REMARK   55  A    between atoms: _145  and  _146
REMARK   56  A    between atoms: _145  and  _148
REMARK   57  A    between atoms: _148  and  _149
REMARK   58  A    between atoms: _149  and  _150
REMARK   59  A    between atoms: _150  and  _151
REMARK   60  A    between atoms: _160  and  _162
REMARK   61  A    between atoms: _162  and  _163
REMARK   62  A    between atoms: _162  and  _165
REMARK   63  A    between atoms: _165  and  _166
REMARK   64  A    between atoms: _169  and  _171
REMARK   65  A    between atoms: _171  and  _172
REMARK   66  A    between atoms: _171  and  _174
REMARK   67  A    between atoms: _174  and  _175
REMARK   68  A    between atoms: _178  and  _180
REMARK   69  A    between atoms: _180  and  _181
REMARK   70  A    between atoms: _180  and  _183
REMARK   71  A    between atoms: _183  and  _184
REMARK   72  A    between atoms: _187  and  _189
REMARK   73  A    between atoms: _189  and  _190
REMARK   74  A    between atoms: _189  and  _192
REMARK   75  A    between atoms: _192  and  _193
REMARK   76  A    between atoms: _193  and  _194
REMARK   77  A    between atoms: _197  and  _199
REMARK   78  A    between atoms: _199  and  _200
REMARK   79  A    between atoms: _199  and  _202
REMARK   80  A    between atoms: _202  and  _203
REMARK   81  A    between atoms: _203  and  _204
REMARK   82  A    between atoms: _204  and  _205
REMARK   83  A    between atoms: _205  and  _206
REMARK   84  A    between atoms: _210  and  _212
REMARK   85  A    between atoms: _212  and  _213
REMARK   86  A    between atoms: _212  and  _215
REMARK   87  A    between atoms: _215  and  _216
REMARK   88  A    between atoms: _219  and  _221
REMARK   89  A    between atoms: _221  and  _222
REMARK   90  A    between atoms: _221  and  _224
REMARK   91  A    between atoms: _224  and  _225
REMARK   92  A    between atoms: _225  and  _226
REMARK   93  A    between atoms: _226  and  _227
REMARK   94  A    between atoms: _236  and  _238
REMARK   95  A    between atoms: _238  and  _239
REMARK   96  A    between atoms: _238  and  _241
REMARK   97  A    between atoms: _241  and  _242
REMARK   98  A    between atoms: _247  and  _248
REMARK   99  A    between atoms: _250  and  _252
REMARK  100  A    between atoms: _252  and  _253
REMARK  101  A    between atoms: _252  and  _255
REMARK  102  A    between atoms: _255  and  _256
REMARK  103  A    between atoms: _259  and  _261
REMARK  104  A    between atoms: _261  and  _262
REMARK  105  A    between atoms: _261  and  _264
REMARK  106  A    between atoms: _264  and  _265
REMARK  107  A    between atoms: _269  and  _270
REMARK  108  A    between atoms: _275  and  _277
REMARK  109  A    between atoms: _277  and  _278
REMARK  110  A    between atoms: _277  and  _280
REMARK  111  A    between atoms: _280  and  _281
REMARK  112  A    between atoms: _287  and  _289
REMARK  113  A    between atoms: _289  and  _290
REMARK  114  A    between atoms: _289  and  _292
REMARK  115  A    between atoms: _292  and  _293
REMARK  116  A    between atoms: _293  and  _294
REMARK  117  A    between atoms: _294  and  _295
REMARK  118  A    between atoms: _304  and  _306
REMARK  119  A    between atoms: _306  and  _307
REMARK  120  A    between atoms: _306  and  _309
REMARK  121  A    between atoms: _309  and  _310
REMARK  122  A    between atoms: _316  and  _318
REMARK  123  A    between atoms: _318  and  _319
REMARK  124  A    between atoms: _318  and  _321
REMARK  125  A    between atoms: _321  and  _322
REMARK  126  A    between atoms: _327  and  _329
REMARK  127  A    between atoms: _329  and  _330
REMARK  128  A    between atoms: _329  and  _332
REMARK  129  A    between atoms: _332  and  _333
REMARK  130  A    between atoms: _336  and  _338
REMARK  131  A    between atoms: _338  and  _339
REMARK  132  A    between atoms: _338  and  _341
REMARK  133  A    between atoms: _341  and  _342
REMARK  134  A    between atoms: _345  and  _347
REMARK  135  A    between atoms: _347  and  _348
REMARK  136  A    between atoms: _350  and  _352
REMARK  137  A    between atoms: _352  and  _353
REMARK  138  A    between atoms: _352  and  _355
REMARK  139  A    between atoms: _355  and  _356
REMARK  140  A    between atoms: _356  and  _357
REMARK  141  A    between atoms: _360  and  _362
REMARK  142  A    between atoms: _362  and  _363
REMARK  143  A    between atoms: _362  and  _365
REMARK  144  A    between atoms: _365  and  _366
REMARK  145  A    between atoms: _366  and  _367
REMARK  146  A    between atoms: _367  and  _368
REMARK  147  A    between atoms: _368  and  _369
REMARK  148  A    between atoms: _373  and  _375
REMARK  149  A    between atoms: _375  and  _376
REMARK  150  A    between atoms: _375  and  _378
REMARK  151  A    between atoms: _378  and  _379
REMARK  152  A    between atoms: _390  and  _391
REMARK  153  A    between atoms: _396  and  _398
REMARK  154  A    between atoms: _398  and  _399
REMARK  155  A    between atoms: _401  and  _403
REMARK  156  A    between atoms: _403  and  _404
REMARK  157  A    between atoms: _403  and  _406
REMARK  158  A    between atoms: _406  and  _407
REMARK  159  A    between atoms: _410  and  _412
REMARK  160  A    between atoms: _412  and  _413
REMARK  161  A    between atoms: _412  and  _415
REMARK  162  A    between atoms: _415  and  _416
REMARK  163  A    between atoms: _418  and  _420
REMARK  164  A    between atoms: _420  and  _421
REMARK  165  A    between atoms: _420  and  _423
REMARK  166  A    between atoms: _423  and  _424
REMARK  167  A    between atoms: _429  and  _430
REMARK  168  A    between atoms: _432  and  _434
REMARK  169  A    between atoms: _434  and  _435
REMARK  170  A    between atoms: _434  and  _437
REMARK  171  A    between atoms: _437  and  _438
REMARK  172  A    between atoms: _444  and  _446
REMARK  173  A    between atoms: _446  and  _447
REMARK  174  A    between atoms: _446  and  _449
REMARK  175  A    between atoms: _449  and  _450
REMARK  176  A    between atoms: _450  and  _451
REMARK  177  A    between atoms: _454  and  _456
REMARK  178  A    between atoms: _456  and  _457
REMARK  179  A    between atoms: _456  and  _459
REMARK  180  A    between atoms: _459  and  _460
REMARK  181  A    between atoms: _460  and  _461
REMARK  182  A    between atoms: _463  and  _465
REMARK  183  A    between atoms: _465  and  _466
REMARK  184  A    between atoms: _465  and  _468
REMARK  185  A    between atoms: _468  and  _469
REMARK  186  A    between atoms: _479  and  _481
REMARK  187  A    between atoms: _481  and  _482
REMARK  188  A    between atoms: _481  and  _484
REMARK  189  A    between atoms: _484  and  _485
REMARK  190  A    between atoms: _495  and  _497
REMARK  191  A    between atoms: _497  and  _498
REMARK  192  A    between atoms: _497  and  _500
REMARK  193  A    between atoms: _500  and  _501
REMARK  194  A    between atoms: _506  and  _508
REMARK  195  A    between atoms: _508  and  _509
REMARK  196  A    between atoms: _508  and  _511
REMARK  197  A    between atoms: _511  and  _512
REMARK  198  A    between atoms: _515  and  _517
REMARK  199  A    between atoms: _517  and  _518
REMARK  200  A    between atoms: _521  and  _523
REMARK  201  A    between atoms: _523  and  _524
REMARK  202  A    between atoms: _523  and  _526
REMARK  203  A    between atoms: _526  and  _527
REMARK  204  A    between atoms: _532  and  _533
REMARK  205  A    between atoms: _535  and  _537
REMARK  206  A    between atoms: _537  and  _538
REMARK  207  A    between atoms: _537  and  _540
REMARK  208  A    between atoms: _540  and  _541
REMARK  209  A    between atoms: _551  and  _553
REMARK  210  A    between atoms: _553  and  _554
REMARK  211  A    between atoms: _553  and  _556
REMARK  212  A    between atoms: _556  and  _557
REMARK  213  A    between atoms: _562  and  _564
REMARK  214  A    between atoms: _564  and  _565
REMARK  215  A    between atoms: _567  and  _569
REMARK  216  A    between atoms: _569  and  _570
REMARK  217  A    between atoms: _569  and  _572
REMARK  218  A    between atoms: _575  and  _577
REMARK  219  A    between atoms: _577  and  _578
REMARK  220  A    between atoms: _577  and  _580
REMARK  221  A    between atoms: _580  and  _581
REMARK  222  A    between atoms: _587  and  _589
REMARK  223  A    between atoms: _589  and  _590
REMARK  224  A    between atoms: _592  and  _594
REMARK  225  A    between atoms: _594  and  _595
REMARK  226  A    between atoms: _597  and  _599
REMARK  227  A    between atoms: _599  and  _600
REMARK  228  A    between atoms: _599  and  _602
REMARK  229  A    between atoms: _602  and  _603
REMARK  230  A    between atoms: _606  and  _608
REMARK  231  A    between atoms: _608  and  _609
REMARK  232  A    between atoms: _608  and  _611
REMARK  233  A    between atoms: _611  and  _612
REMARK  234  A    between atoms: _615  and  _617
REMARK  235  A    between atoms: _617  and  _618
REMARK  236  A    between atoms: _617  and  _620
REMARK  237  A    between atoms: _620  and  _621
REMARK  238  A    between atoms: _624  and  _626
REMARK  239  A    between atoms: _626  and  _627
REMARK  240  A    between atoms: _626  and  _629
REMARK  241  A    between atoms: _629  and  _630
REMARK  242  A    between atoms: _630  and  _631
REMARK                            x       y       z     vdW  Elec       q    Type
REMARK                         _______ _______ _______ _____ _____    ______ ____
ROOT
ATOM      1  O   HOH     1      -4.547  61.775  90.165  0.00  0.00    +0.000 OA
ENDROOT
TORSDOF 0
REMARK  Name = ../refined-set-2016/1k1y/1k1y_pocket.pdb
REMARK  242 active torsions:
REMARK  status: ('A' for Active; 'I' for Inactive)
REMARK    1  A    between atoms: _1  and  _3
REMARK    2  A    between atoms: _3  and  _4
REMARK    3  A    between atoms: _3  and  _6
REMARK    4  A    between atoms: _6  and  _7
REMARK    5  A    between atoms: _12  and  _14
REMARK    6  A    between atoms: _14  and  _15
REMARK    7  A    between atoms: _14  and  _17
REMARK    8  A    between atoms: _17  and  _18
REMARK    9  A    between atoms: _23  and  _25
REMARK   10  A    between atoms: _25  and  _26
REMARK   11  A    between atoms: _25  and  _28
REMARK   12  A    between atoms: _28  and  _29
REMARK   13  A    between atoms: _34  and  _36
REMARK   14  A    between atoms: _36  and  _37
REMARK   15  A    between atoms: _36  and  _39
REMARK   16  A    between atoms: _39  and  _40
REMARK   17  A    between atoms: _40  and  _41
REMARK   18  A    between atoms: _47  and  _48
REMARK   19  A    between atoms: _53  and  _55
REMARK   20  A    between atoms: _55  and  _56
REMARK   21  A    between atoms: _55  and  _58
REMARK   22  A    between atoms: _58  and  _59
REMARK   23  A    between atoms: _64  and  _66
REMARK   24  A    between atoms: _66  and  _67
REMARK   25  A    between atoms: _66  and  _69
REMARK   26  A    between atoms: _69  and  _70
REMARK   27  A    between atoms: _75  and  _76
REMARK   28  A    between atoms: _78  and  _80
REMARK   29  A    between atoms: _80  and  _81
REMARK   30  A    between atoms: _80  and  _83
REMARK   31  A    between atoms: _83  and  _84
REMARK   32  A    between atoms: _89  and  _91
REMARK   33  A    between atoms: _91  and  _92
REMARK   34  A    between atoms: _91  and  _94
REMARK   35  A    between atoms: _94  and  _95
REMARK   36  A    between atoms: _95  and  _96
REMARK   37  A    between atoms: _99  and  _101
REMARK   38  A    between atoms: _101  and  _102
REMARK   39  A    between atoms: _101  and  _104
REMARK   40  A    between atoms: _104  and  _105
REMARK   41  A    between atoms: _115  and  _117
REMARK   42  A    between atoms: _117  and  _118
REMARK   43  A    between atoms: _117  and  _120
REMARK   44  A    between atoms: _120  and  _121
REMARK   45  A    between atoms: _124  and  _126
REMARK   46  A    between atoms: _126  and  _127
REMARK   47  A    between atoms: _126  and  _129
REMARK   48  A    between atoms: _129  and  _130
REMARK   49  A    between atoms: _133  and  _135
REMARK   50  A    between atoms: _135  and  _136
REMARK   51  A    between atoms: _135  and  _138
REMARK   52  A    between atoms: _138  and  _139
REMARK   53  A    between atoms: _139  and  _140
REMARK   54  A    between atoms: _143  and  _145
REMARK   55  A    between atoms: _145  and  _146
REMARK   56  A    between atoms: _145  and  _148
REMARK   57  A    between atoms: _148  and  _149
REMARK   58  A    between atoms: _149  and  _150
REMARK   59  A    between atoms: _150  and  _151
REMARK   60  A    between atoms: _160  and  _162
REMARK   61  A    between atoms: _162  and  _163
REMARK   62  A    between atoms: _162  and  _165
REMARK   63  A    between atoms: _165  and  _166
REMARK   64  A    between atoms: _169  and  _171
REMARK   65  A    between atoms: _171  and  _172
REMARK   66  A    between atoms: _171  and  _174
REMARK   67  A    between atoms: _174  and  _175
REMARK   68  A    between atoms: _178  and  _180
REMARK   69  A    between atoms: _180  and  _181
REMARK   70  A    between atoms: _180  and  _183
REMARK   71  A    between atoms: _183  and  _184
REMARK   72  A    between atoms: _187  and  _189
REMARK   73  A    between atoms: _189  and  _190
REMARK   74  A    between atoms: _189  and  _192
REMARK   75  A    between atoms: _192  and  _193
REMARK   76  A    between atoms: _193  and  _194
REMARK   77  A    between atoms: _197  and  _199
REMARK   78  A    between atoms: _199  and  _200
REMARK   79  A    between atoms: _199  and  _202
REMARK   80  A    between atoms: _202  and  _203
REMARK   81  A    between atoms: _203  and  _204
REMARK   82  A    between atoms: _204  and  _205
REMARK   83  A    between atoms: _205  and  _206
REMARK   84  A    between atoms: _210  and  _212
REMARK   85  A    between atoms: _212  and  _213
REMARK   86  A    between atoms: _212  and  _215
REMARK   87  A    between atoms: _215  and  _216
REMARK   88  A    between atoms: _219  and  _221
REMARK   89  A    between atoms: _221  and  _222
REMARK   90  A    between atoms: _221  and  _224
REMARK   91  A    between atoms: _224  and  _225
REMARK   92  A    between atoms: _225  and  _226
REMARK   93  A    between atoms: _226  and  _227
REMARK   94  A    between atoms: _236  and  _238
REMARK   95  A    between atoms: _238  and  _239
REMARK   96  A    between atoms: _238  and  _241
REMARK   97  A    between atoms: _241  and  _242
REMARK   98  A    between atoms: _247  and  _248
REMARK   99  A    between atoms: _250  and  _252
REMARK  100  A    between atoms: _252  and  _253
REMARK  101  A    between atoms: _252  and  _255
REMARK  102  A    between atoms: _255  and  _256
REMARK  103  A    between atoms: _259  and  _261
REMARK  104  A    between atoms: _261  and  _262
REMARK  105  A    between atoms: _261  and  _264
REMARK  106  A    between atoms: _264  and  _265
REMARK  107  A    between atoms: _269  and  _270
REMARK  108  A    between atoms: _275  and  _277
REMARK  109  A    between atoms: _277  and  _278
REMARK  110  A    between atoms: _277  and  _280
REMARK  111  A    between atoms: _280  and  _281
REMARK  112  A    between atoms: _287  and  _289
REMARK  113  A    between atoms: _289  and  _290
REMARK  114  A    between atoms: _289  and  _292
REMARK  115  A    between atoms: _292  and  _293
REMARK  116  A    between atoms: _293  and  _294
REMARK  117  A    between atoms: _294  and  _295
REMARK  118  A    between atoms: _304  and  _306
REMARK  119  A    between atoms: _306  and  _307
REMARK  120  A    between atoms: _306  and  _309
REMARK  121  A    between atoms: _309  and  _310
REMARK  122  A    between atoms: _316  and  _318
REMARK  123  A    between atoms: _318  and  _319
REMARK  124  A    between atoms: _318  and  _321
REMARK  125  A    between atoms: _321  and  _322
REMARK  126  A    between atoms: _327  and  _329
REMARK  127  A    between atoms: _329  and  _330
REMARK  128  A    between atoms: _329  and  _332
REMARK  129  A    between atoms: _332  and  _333
REMARK  130  A    between atoms: _336  and  _338
REMARK  131  A    between atoms: _338  and  _339
REMARK  132  A    between atoms: _338  and  _341
REMARK  133  A    between atoms: _341  and  _342
REMARK  134  A    between atoms: _345  and  _347
REMARK  135  A    between atoms: _347  and  _348
REMARK  136  A    between atoms: _350  and  _352
REMARK  137  A    between atoms: _352  and  _353
REMARK  138  A    between atoms: _352  and  _355
REMARK  139  A    between atoms: _355  and  _356
REMARK  140  A    between atoms: _356  and  _357
REMARK  141  A    between atoms: _360  and  _362
REMARK  142  A    between atoms: _362  and  _363
REMARK  143  A    between atoms: _362  and  _365
REMARK  144  A    between atoms: _365  and  _366
REMARK  145  A    between atoms: _366  and  _367
REMARK  146  A    between atoms: _367  and  _368
REMARK  147  A    between atoms: _368  and  _369
REMARK  148  A    between atoms: _373  and  _375
REMARK  149  A    between atoms: _375  and  _376
REMARK  150  A    between atoms: _375  and  _378
REMARK  151  A    between atoms: _378  and  _379
REMARK  152  A    between atoms: _390  and  _391
REMARK  153  A    between atoms: _396  and  _398
REMARK  154  A    between atoms: _398  and  _399
REMARK  155  A    between atoms: _401  and  _403
REMARK  156  A    between atoms: _403  and  _404
REMARK  157  A    between atoms: _403  and  _406
REMARK  158  A    between atoms: _406  and  _407
REMARK  159  A    between atoms: _410  and  _412
REMARK  160  A    between atoms: _412  and  _413
REMARK  161  A    between atoms: _412  and  _415
REMARK  162  A    between atoms: _415  and  _416
REMARK  163  A    between atoms: _418  and  _420
REMARK  164  A    between atoms: _420  and  _421
REMARK  165  A    between atoms: _420  and  _423
REMARK  166  A    between atoms: _423  and  _424
REMARK  167  A    between atoms: _429  and  _430
REMARK  168  A    between atoms: _432  and  _434
REMARK  169  A    between atoms: _434  and  _435
REMARK  170  A    between atoms: _434  and  _437
REMARK  171  A    between atoms: _437  and  _438
REMARK  172  A    between atoms: _444  and  _446
REMARK  173  A    between atoms: _446  and  _447
REMARK  174  A    between atoms: _446  and  _449
REMARK  175  A    between atoms: _449  and  _450
REMARK  176  A    between atoms: _450  and  _451
REMARK  177  A    between atoms: _454  and  _456
REMARK  178  A    between atoms: _456  and  _457
REMARK  179  A    between atoms: _456  and  _459
REMARK  180  A    between atoms: _459  and  _460
REMARK  181  A    between atoms: _460  and  _461
REMARK  182  A    between atoms: _463  and  _465
REMARK  183  A    between atoms: _465  and  _466
REMARK  184  A    between atoms: _465  and  _468
REMARK  185  A    between atoms: _468  and  _469
REMARK  186  A    between atoms: _479  and  _481
REMARK  187  A    between atoms: _481  and  _482
REMARK  188  A    between atoms: _481  and  _484
REMARK  189  A    between atoms: _484  and  _485
REMARK  190  A    between atoms: _495  and  _497
REMARK  191  A    between atoms: _497  and  _498
REMARK  192  A    between atoms: _497  and  _500
REMARK  193  A    between atoms: _500  and  _501
REMARK  194  A    between atoms: _506  and  _508
REMARK  195  A    between atoms: _508  and  _509
REMARK  196  A    between atoms: _508  and  _511
REMARK  197  A    between atoms: _511  and  _512
REMARK  198  A    between atoms: _515  and  _517
REMARK  199  A    between atoms: _517  and  _518
REMARK  200  A    between atoms: _521  and  _523
REMARK  201  A    between atoms: _523  and  _524
REMARK  202  A    between atoms: _523  and  _526
REMARK  203  A    between atoms: _526  and  _527
REMARK  204  A    between atoms: _532  and  _533
REMARK  205  A    between atoms: _535  and  _537
REMARK  206  A    between atoms: _537  and  _538
REMARK  207  A    between atoms: _537  and  _540
REMARK  208  A    between atoms: _540  and  _541
REMARK  209  A    between atoms: _551  and  _553
REMARK  210  A    between atoms: _553  and  _554
REMARK  211  A    between atoms: _553  and  _556
REMARK  212  A    between atoms: _556  and  _557
REMARK  213  A    between atoms: _562  and  _564
REMARK  214  A    between atoms: _564  and  _565
REMARK  215  A    between atoms: _567  and  _569
REMARK  216  A    between atoms: _569  and  _570
REMARK  217  A    between atoms: _569  and  _572
REMARK  218  A    between atoms: _575  and  _577
REMARK  219  A    between atoms: _577  and  _578
REMARK  220  A    between atoms: _577  and  _580
REMARK  221  A    between atoms: _580  and  _581
REMARK  222  A    between atoms: _587  and  _589
REMARK  223  A    between atoms: _589  and  _590
REMARK  224  A    between atoms: _592  and  _594
REMARK  225  A    between atoms: _594  and  _595
REMARK  226  A    between atoms: _597  and  _599
REMARK  227  A    between atoms: _599  and  _600
REMARK  228  A    between atoms: _599  and  _602
REMARK  229  A    between atoms: _602  and  _603
REMARK  230  A    between atoms: _606  and  _608
REMARK  231  A    between atoms: _608  and  _609
REMARK  232  A    between atoms: _608  and  _611
REMARK  233  A    between atoms: _611  and  _612
REMARK  234  A    between atoms: _615  and  _617
REMARK  235  A    between atoms: _617  and  _618
REMARK  236  A    between atoms: _617  and  _620
REMARK  237  A    between atoms: _620  and  _621
REMARK  238  A    between atoms: _624  and  _626
REMARK  239  A    between atoms: _626  and  _627
REMARK  240  A    between atoms: _626  and  _629
REMARK  241  A    between atoms: _629  and  _630
REMARK  242  A    between atoms: _630  and  _631
REMARK                            x       y       z     vdW  Elec       q    Type
REMARK                         _______ _______ _______ _____ _____    ______ ____
ROOT
ATOM      1  O   HOH     1       1.375  63.256  91.127  0.00  0.00    +0.000 OA
ENDROOT
TORSDOF 0
REMARK  Name = ../refined-set-2016/1k1y/1k1y_pocket.pdb
REMARK  242 active torsions:
REMARK  status: ('A' for Active; 'I' for Inactive)
REMARK    1  A    between atoms: _1  and  _3
REMARK    2  A    between atoms: _3  and  _4
REMARK    3  A    between atoms: _3  and  _6
REMARK    4  A    between atoms: _6  and  _7
REMARK    5  A    between atoms: _12  and  _14
REMARK    6  A    between atoms: _14  and  _15
REMARK    7  A    between atoms: _14  and  _17
REMARK    8  A    between atoms: _17  and  _18
REMARK    9  A    between atoms: _23  and  _25
REMARK   10  A    between atoms: _25  and  _26
REMARK   11  A    between atoms: _25  and  _28
REMARK   12  A    between atoms: _28  and  _29
REMARK   13  A    between atoms: _34  and  _36
REMARK   14  A    between atoms: _36  and  _37
REMARK   15  A    between atoms: _36  and  _39
REMARK   16  A    between atoms: _39  and  _40
REMARK   17  A    between atoms: _40  and  _41
REMARK   18  A    between atoms: _47  and  _48
REMARK   19  A    between atoms: _53  and  _55
REMARK   20  A    between atoms: _55  and  _56
REMARK   21  A    between atoms: _55  and  _58
REMARK   22  A    between atoms: _58  and  _59
REMARK   23  A    between atoms: _64  and  _66
REMARK   24  A    between atoms: _66  and  _67
REMARK   25  A    between atoms: _66  and  _69
REMARK   26  A    between atoms: _69  and  _70
REMARK   27  A    between atoms: _75  and  _76
REMARK   28  A    between atoms: _78  and  _80
REMARK   29  A    between atoms: _80  and  _81
REMARK   30  A    between atoms: _80  and  _83
REMARK   31  A    between atoms: _83  and  _84
REMARK   32  A    between atoms: _89  and  _91
REMARK   33  A    between atoms: _91  and  _92
REMARK   34  A    between atoms: _91  and  _94
REMARK   35  A    between atoms: _94  and  _95
REMARK   36  A    between atoms: _95  and  _96
REMARK   37  A    between atoms: _99  and  _101
REMARK   38  A    between atoms: _101  and  _102
REMARK   39  A    between atoms: _101  and  _104
REMARK   40  A    between atoms: _104  and  _105
REMARK   41  A    between atoms: _115  and  _117
REMARK   42  A    between atoms: _117  and  _118
REMARK   43  A    between atoms: _117  and  _120
REMARK   44  A    between atoms: _120  and  _121
REMARK   45  A    between atoms: _124  and  _126
REMARK   46  A    between atoms: _126  and  _127
REMARK   47  A    between atoms: _126  and  _129
REMARK   48  A    between atoms: _129  and  _130
REMARK   49  A    between atoms: _133  and  _135
REMARK   50  A    between atoms: _135  and  _136
REMARK   51  A    between atoms: _135  and  _138
REMARK   52  A    between atoms: _138  and  _139
REMARK   53  A    between atoms: _139  and  _140
REMARK   54  A    between atoms: _143  and  _145
REMARK   55  A    between atoms: _145  and  _146
REMARK   56  A    between atoms: _145  and  _148
REMARK   57  A    between atoms: _148  and  _149
REMARK   58  A    between atoms: _149  and  _150
REMARK   59  A    between atoms: _150  and  _151
REMARK   60  A    between atoms: _160  and  _162
REMARK   61  A    between atoms: _162  and  _163
REMARK   62  A    between atoms: _162  and  _165
REMARK   63  A    between atoms: _165  and  _166
REMARK   64  A    between atoms: _169  and  _171
REMARK   65  A    between atoms: _171  and  _172
REMARK   66  A    between atoms: _171  and  _174
REMARK   67  A    between atoms: _174  and  _175
REMARK   68  A    between atoms: _178  and  _180
REMARK   69  A    between atoms: _180  and  _181
REMARK   70  A    between atoms: _180  and  _183
REMARK   71  A    between atoms: _183  and  _184
REMARK   72  A    between atoms: _187  and  _189
REMARK   73  A    between atoms: _189  and  _190
REMARK   74  A    between atoms: _189  and  _192
REMARK   75  A    between atoms: _192  and  _193
REMARK   76  A    between atoms: _193  and  _194
REMARK   77  A    between atoms: _197  and  _199
REMARK   78  A    between atoms: _199  and  _200
REMARK   79  A    between atoms: _199  and  _202
REMARK   80  A    between atoms: _202  and  _203
REMARK   81  A    between atoms: _203  and  _204
REMARK   82  A    between atoms: _204  and  _205
REMARK   83  A    between atoms: _205  and  _206
REMARK   84  A    between atoms: _210  and  _212
REMARK   85  A    between atoms: _212  and  _213
REMARK   86  A    between atoms: _212  and  _215
REMARK   87  A    between atoms: _215  and  _216
REMARK   88  A    between atoms: _219  and  _221
REMARK   89  A    between atoms: _221  and  _222
REMARK   90  A    between atoms: _221  and  _224
REMARK   91  A    between atoms: _224  and  _225
REMARK   92  A    between atoms: _225  and  _226
REMARK   93  A    between atoms: _226  and  _227
REMARK   94  A    between atoms: _236  and  _238
REMARK   95  A    between atoms: _238  and  _239
REMARK   96  A    between atoms: _238  and  _241
REMARK   97  A    between atoms: _241  and  _242
REMARK   98  A    between atoms: _247  and  _248
REMARK   99  A    between atoms: _250  and  _252
REMARK  100  A    between atoms: _252  and  _253
REMARK  101  A    between atoms: _252  and  _255
REMARK  102  A    between atoms: _255  and  _256
REMARK  103  A    between atoms: _259  and  _261
REMARK  104  A    between atoms: _261  and  _262
REMARK  105  A    between atoms: _261  and  _264
REMARK  106  A    between atoms: _264  and  _265
REMARK  107  A    between atoms: _269  and  _270
REMARK  108  A    between atoms: _275  and  _277
REMARK  109  A    between atoms: _277  and  _278
REMARK  110  A    between atoms: _277  and  _280
REMARK  111  A    between atoms: _280  and  _281
REMARK  112  A    between atoms: _287  and  _289
REMARK  113  A    between atoms: _289  and  _290
REMARK  114  A    between atoms: _289  and  _292
REMARK  115  A    between atoms: _292  and  _293
REMARK  116  A    between atoms: _293  and  _294
REMARK  117  A    between atoms: _294  and  _295
REMARK  118  A    between atoms: _304  and  _306
REMARK  119  A    between atoms: _306  and  _307
REMARK  120  A    between atoms: _306  and  _309
REMARK  121  A    between atoms: _309  and  _310
REMARK  122  A    between atoms: _316  and  _318
REMARK  123  A    between atoms: _318  and  _319
REMARK  124  A    between atoms: _318  and  _321
REMARK  125  A    between atoms: _321  and  _322
REMARK  126  A    between atoms: _327  and  _329
REMARK  127  A    between atoms: _329  and  _330
REMARK  128  A    between atoms: _329  and  _332
REMARK  129  A    between atoms: _332  and  _333
REMARK  130  A    between atoms: _336  and  _338
REMARK  131  A    between atoms: _338  and  _339
REMARK  132  A    between atoms: _338  and  _341
REMARK  133  A    between atoms: _341  and  _342
REMARK  134  A    between atoms: _345  and  _347
REMARK  135  A    between atoms: _347  and  _348
REMARK  136  A    between atoms: _350  and  _352
REMARK  137  A    between atoms: _352  and  _353
REMARK  138  A    between atoms: _352  and  _355
REMARK  139  A    between atoms: _355  and  _356
REMARK  140  A    between atoms: _356  and  _357
REMARK  141  A    between atoms: _360  and  _362
REMARK  142  A    between atoms: _362  and  _363
REMARK  143  A    between atoms: _362  and  _365
REMARK  144  A    between atoms: _365  and  _366
REMARK  145  A    between atoms: _366  and  _367
REMARK  146  A    between atoms: _367  and  _368
REMARK  147  A    between atoms: _368  and  _369
REMARK  148  A    between atoms: _373  and  _375
REMARK  149  A    between atoms: _375  and  _376
REMARK  150  A    between atoms: _375  and  _378
REMARK  151  A    between atoms: _378  and  _379
REMARK  152  A    between atoms: _390  and  _391
REMARK  153  A    between atoms: _396  and  _398
REMARK  154  A    between atoms: _398  and  _399
REMARK  155  A    between atoms: _401  and  _403
REMARK  156  A    between atoms: _403  and  _404
REMARK  157  A    between atoms: _403  and  _406
REMARK  158  A    between atoms: _406  and  _407
REMARK  159  A    between atoms: _410  and  _412
REMARK  160  A    between atoms: _412  and  _413
REMARK  161  A    between atoms: _412  and  _415
REMARK  162  A    between atoms: _415  and  _416
REMARK  163  A    between atoms: _418  and  _420
REMARK  164  A    between atoms: _420  and  _421
REMARK  165  A    between atoms: _420  and  _423
REMARK  166  A    between atoms: _423  and  _424
REMARK  167  A    between atoms: _429  and  _430
REMARK  168  A    between atoms: _432  and  _434
REMARK  169  A    between atoms: _434  and  _435
REMARK  170  A    between atoms: _434  and  _437
REMARK  171  A    between atoms: _437  and  _438
REMARK  172  A    between atoms: _444  and  _446
REMARK  173  A    between atoms: _446  and  _447
REMARK  174  A    between atoms: _446  and  _449
REMARK  175  A    between atoms: _449  and  _450
REMARK  176  A    between atoms: _450  and  _451
REMARK  177  A    between atoms: _454  and  _456
REMARK  178  A    between atoms: _456  and  _457
REMARK  179  A    between atoms: _456  and  _459
REMARK  180  A    between atoms: _459  and  _460
REMARK  181  A    between atoms: _460  and  _461
REMARK  182  A    between atoms: _463  and  _465
REMARK  183  A    between atoms: _465  and  _466
REMARK  184  A    between atoms: _465  and  _468
REMARK  185  A    between atoms: _468  and  _469
REMARK  186  A    between atoms: _479  and  _481
REMARK  187  A    between atoms: _481  and  _482
REMARK  188  A    between atoms: _481  and  _484
REMARK  189  A    between atoms: _484  and  _485
REMARK  190  A    between atoms: _495  and  _497
REMARK  191  A    between atoms: _497  and  _498
REMARK  192  A    between atoms: _497  and  _500
REMARK  193  A    between atoms: _500  and  _501
REMARK  194  A    between atoms: _506  and  _508
REMARK  195  A    between atoms: _508  and  _509
REMARK  196  A    between atoms: _508  and  _511
REMARK  197  A    between atoms: _511  and  _512
REMARK  198  A    between atoms: _515  and  _517
REMARK  199  A    between atoms: _517  and  _518
REMARK  200  A    between atoms: _521  and  _523
REMARK  201  A    between atoms: _523  and  _524
REMARK  202  A    between atoms: _523  and  _526
REMARK  203  A    between atoms: _526  and  _527
REMARK  204  A    between atoms: _532  and  _533
REMARK  205  A    between atoms: _535  and  _537
REMARK  206  A    between atoms: _537  and  _538
REMARK  207  A    between atoms: _537  and  _540
REMARK  208  A    between atoms: _540  and  _541
REMARK  209  A    between atoms: _551  and  _553
REMARK  210  A    between atoms: _553  and  _554
REMARK  211  A    between atoms: _553  and  _556
REMARK  212  A    between atoms: _556  and  _557
REMARK  213  A    between atoms: _562  and  _564
REMARK  214  A    between atoms: _564  and  _565
REMARK  215  A    between atoms: _567  and  _569
REMARK  216  A    between atoms: _569  and  _570
REMARK  217  A    between atoms: _569  and  _572
REMARK  218  A    between atoms: _575  and  _577
REMARK  219  A    between atoms: _577  and  _578
REMARK  220  A    between atoms: _577  and  _580
REMARK  221  A    between atoms: _580  and  _581
REMARK  222  A    between atoms: _587  and  _589
REMARK  223  A    between atoms: _589  and  _590
REMARK  224  A    between atoms: _592  and  _594
REMARK  225  A    between atoms: _594  and  _595
REMARK  226  A    between atoms: _597  and  _599
REMARK  227  A    between atoms: _599  and  _600
REMARK  228  A    between atoms: _599  and  _602
REMARK  229  A    between atoms: _602  and  _603
REMARK  230  A    between atoms: _606  and  _608
REMARK  231  A    between atoms: _608  and  _609
REMARK  232  A    between atoms: _608  and  _611
REMARK  233  A    between atoms: _611  and  _612
REMARK  234  A    between atoms: _615  and  _617
REMARK  235  A    between atoms: _617  and  _618
REMARK  236  A    between atoms: _617  and  _620
REMARK  237  A    between atoms: _620  and  _621
REMARK  238  A    between atoms: _624  and  _626
REMARK  239  A    between atoms: _626  and  _627
REMARK  240  A    between atoms: _626  and  _629
REMARK  241  A    between atoms: _629  and  _630
REMARK  242  A    between atoms: _630  and  _631
REMARK                            x       y       z     vdW  Elec       q    Type
REMARK                         _______ _______ _______ _____ _____    ______ ____
ROOT
ATOM      1  O   HOH     1      -7.976  68.085  92.791  0.00  0.00    +0.000 OA
ENDROOT
TORSDOF 0
REMARK  Name = ../refined-set-2016/1k1y/1k1y_pocket.pdb
REMARK  242 active torsions:
REMARK  status: ('A' for Active; 'I' for Inactive)
REMARK    1  A    between atoms: _1  and  _3
REMARK    2  A    between atoms: _3  and  _4
REMARK    3  A    between atoms: _3  and  _6
REMARK    4  A    between atoms: _6  and  _7
REMARK    5  A    between atoms: _12  and  _14
REMARK    6  A    between atoms: _14  and  _15
REMARK    7  A    between atoms: _14  and  _17
REMARK    8  A    between atoms: _17  and  _18
REMARK    9  A    between atoms: _23  and  _25
REMARK   10  A    between atoms: _25  and  _26
REMARK   11  A    between atoms: _25  and  _28
REMARK   12  A    between atoms: _28  and  _29
REMARK   13  A    between atoms: _34  and  _36
REMARK   14  A    between atoms: _36  and  _37
REMARK   15  A    between atoms: _36  and  _39
REMARK   16  A    between atoms: _39  and  _40
REMARK   17  A    between atoms: _40  and  _41
REMARK   18  A    between atoms: _47  and  _48
REMARK   19  A    between atoms: _53  and  _55
REMARK   20  A    between atoms: _55  and  _56
REMARK   21  A    between atoms: _55  and  _58
REMARK   22  A    between atoms: _58  and  _59
REMARK   23  A    between atoms: _64  and  _66
REMARK   24  A    between atoms: _66  and  _67
REMARK   25  A    between atoms: _66  and  _69
REMARK   26  A    between atoms: _69  and  _70
REMARK   27  A    between atoms: _75  and  _76
REMARK   28  A    between atoms: _78  and  _80
REMARK   29  A    between atoms: _80  and  _81
REMARK   30  A    between atoms: _80  and  _83
REMARK   31  A    between atoms: _83  and  _84
REMARK   32  A    between atoms: _89  and  _91
REMARK   33  A    between atoms: _91  and  _92
REMARK   34  A    between atoms: _91  and  _94
REMARK   35  A    between atoms: _94  and  _95
REMARK   36  A    between atoms: _95  and  _96
REMARK   37  A    between atoms: _99  and  _101
REMARK   38  A    between atoms: _101  and  _102
REMARK   39  A    between atoms: _101  and  _104
REMARK   40  A    between atoms: _104  and  _105
REMARK   41  A    between atoms: _115  and  _117
REMARK   42  A    between atoms: _117  and  _118
REMARK   43  A    between atoms: _117  and  _120
REMARK   44  A    between atoms: _120  and  _121
REMARK   45  A    between atoms: _124  and  _126
REMARK   46  A    between atoms: _126  and  _127
REMARK   47  A    between atoms: _126  and  _129
REMARK   48  A    between atoms: _129  and  _130
REMARK   49  A    between atoms: _133  and  _135
REMARK   50  A    between atoms: _135  and  _136
REMARK   51  A    between atoms: _135  and  _138
REMARK   52  A    between atoms: _138  and  _139
REMARK   53  A    between atoms: _139  and  _140
REMARK   54  A    between atoms: _143  and  _145
REMARK   55  A    between atoms: _145  and  _146
REMARK   56  A    between atoms: _145  and  _148
REMARK   57  A    between atoms: _148  and  _149
REMARK   58  A    between atoms: _149  and  _150
REMARK   59  A    between atoms: _150  and  _151
REMARK   60  A    between atoms: _160  and  _162
REMARK   61  A    between atoms: _162  and  _163
REMARK   62  A    between atoms: _162  and  _165
REMARK   63  A    between atoms: _165  and  _166
REMARK   64  A    between atoms: _169  and  _171
REMARK   65  A    between atoms: _171  and  _172
REMARK   66  A    between atoms: _171  and  _174
REMARK   67  A    between atoms: _174  and  _175
REMARK   68  A    between atoms: _178  and  _180
REMARK   69  A    between atoms: _180  and  _181
REMARK   70  A    between atoms: _180  and  _183
REMARK   71  A    between atoms: _183  and  _184
REMARK   72  A    between atoms: _187  and  _189
REMARK   73  A    between atoms: _189  and  _190
REMARK   74  A    between atoms: _189  and  _192
REMARK   75  A    between atoms: _192  and  _193
REMARK   76  A    between atoms: _193  and  _194
REMARK   77  A    between atoms: _197  and  _199
REMARK   78  A    between atoms: _199  and  _200
REMARK   79  A    between atoms: _199  and  _202
REMARK   80  A    between atoms: _202  and  _203
REMARK   81  A    between atoms: _203  and  _204
REMARK   82  A    between atoms: _204  and  _205
REMARK   83  A    between atoms: _205  and  _206
REMARK   84  A    between atoms: _210  and  _212
REMARK   85  A    between atoms: _212  and  _213
REMARK   86  A    between atoms: _212  and  _215
REMARK   87  A    between atoms: _215  and  _216
REMARK   88  A    between atoms: _219  and  _221
REMARK   89  A    between atoms: _221  and  _222
REMARK   90  A    between atoms: _221  and  _224
REMARK   91  A    between atoms: _224  and  _225
REMARK   92  A    between atoms: _225  and  _226
REMARK   93  A    between atoms: _226  and  _227
REMARK   94  A    between atoms: _236  and  _238
REMARK   95  A    between atoms: _238  and  _239
REMARK   96  A    between atoms: _238  and  _241
REMARK   97  A    between atoms: _241  and  _242
REMARK   98  A    between atoms: _247  and  _248
REMARK   99  A    between atoms: _250  and  _252
REMARK  100  A    between atoms: _252  and  _253
REMARK  101  A    between atoms: _252  and  _255
REMARK  102  A    between atoms: _255  and  _256
REMARK  103  A    between atoms: _259  and  _261
REMARK  104  A    between atoms: _261  and  _262
REMARK  105  A    between atoms: _261  and  _264
REMARK  106  A    between atoms: _264  and  _265
REMARK  107  A    between atoms: _269  and  _270
REMARK  108  A    between atoms: _275  and  _277
REMARK  109  A    between atoms: _277  and  _278
REMARK  110  A    between atoms: _277  and  _280
REMARK  111  A    between atoms: _280  and  _281
REMARK  112  A    between atoms: _287  and  _289
REMARK  113  A    between atoms: _289  and  _290
REMARK  114  A    between atoms: _289  and  _292
REMARK  115  A    between atoms: _292  and  _293
REMARK  116  A    between atoms: _293  and  _294
REMARK  117  A    between atoms: _294  and  _295
REMARK  118  A    between atoms: _304  and  _306
REMARK  119  A    between atoms: _306  and  _307
REMARK  120  A    between atoms: _306  and  _309
REMARK  121  A    between atoms: _309  and  _310
REMARK  122  A    between atoms: _316  and  _318
REMARK  123  A    between atoms: _318  and  _319
REMARK  124  A    between atoms: _318  and  _321
REMARK  125  A    between atoms: _321  and  _322
REMARK  126  A    between atoms: _327  and  _329
REMARK  127  A    between atoms: _329  and  _330
REMARK  128  A    between atoms: _329  and  _332
REMARK  129  A    between atoms: _332  and  _333
REMARK  130  A    between atoms: _336  and  _338
REMARK  131  A    between atoms: _338  and  _339
REMARK  132  A    between atoms: _338  and  _341
REMARK  133  A    between atoms: _341  and  _342
REMARK  134  A    between atoms: _345  and  _347
REMARK  135  A    between atoms: _347  and  _348
REMARK  136  A    between atoms: _350  and  _352
REMARK  137  A    between atoms: _352  and  _353
REMARK  138  A    between atoms: _352  and  _355
REMARK  139  A    between atoms: _355  and  _356
REMARK  140  A    between atoms: _356  and  _357
REMARK  141  A    between atoms: _360  and  _362
REMARK  142  A    between atoms: _362  and  _363
REMARK  143  A    between atoms: _362  and  _365
REMARK  144  A    between atoms: _365  and  _366
REMARK  145  A    between atoms: _366  and  _367
REMARK  146  A    between atoms: _367  and  _368
REMARK  147  A    between atoms: _368  and  _369
REMARK  148  A    between atoms: _373  and  _375
REMARK  149  A    between atoms: _375  and  _376
REMARK  150  A    between atoms: _375  and  _378
REMARK  151  A    between atoms: _378  and  _379
REMARK  152  A    between atoms: _390  and  _391
REMARK  153  A    between atoms: _396  and  _398
REMARK  154  A    between atoms: _398  and  _399
REMARK  155  A    between atoms: _401  and  _403
REMARK  156  A    between atoms: _403  and  _404
REMARK  157  A    between atoms: _403  and  _406
REMARK  158  A    between atoms: _406  and  _407
REMARK  159  A    between atoms: _410  and  _412
REMARK  160  A    between atoms: _412  and  _413
REMARK  161  A    between atoms: _412  and  _415
REMARK  162  A    between atoms: _415  and  _416
REMARK  163  A    between atoms: _418  and  _420
REMARK  164  A    between atoms: _420  and  _421
REMARK  165  A    between atoms: _420  and  _423
REMARK  166  A    between atoms: _423  and  _424
REMARK  167  A    between atoms: _429  and  _430
REMARK  168  A    between atoms: _432  and  _434
REMARK  169  A    between atoms: _434  and  _435
REMARK  170  A    between atoms: _434  and  _437
REMARK  171  A    between atoms: _437  and  _438
REMARK  172  A    between atoms: _444  and  _446
REMARK  173  A    between atoms: _446  and  _447
REMARK  174  A    between atoms: _446  and  _449
REMARK  175  A    between atoms: _449  and  _450
REMARK  176  A    between atoms: _450  and  _451
REMARK  177  A    between atoms: _454  and  _456
REMARK  178  A    between atoms: _456  and  _457
REMARK  179  A    between atoms: _456  and  _459
REMARK  180  A    between atoms: _459  and  _460
REMARK  181  A    between atoms: _460  and  _461
REMARK  182  A    between atoms: _463  and  _465
REMARK  183  A    between atoms: _465  and  _466
REMARK  184  A    between atoms: _465  and  _468
REMARK  185  A    between atoms: _468  and  _469
REMARK  186  A    between atoms: _479  and  _481
REMARK  187  A    between atoms: _481  and  _482
REMARK  188  A    between atoms: _481  and  _484
REMARK  189  A    between atoms: _484  and  _485
REMARK  190  A    between atoms: _495  and  _497
REMARK  191  A    between atoms: _497  and  _498
REMARK  192  A    between atoms: _497  and  _500
REMARK  193  A    between atoms: _500  and  _501
REMARK  194  A    between atoms: _506  and  _508
REMARK  195  A    between atoms: _508  and  _509
REMARK  196  A    between atoms: _508  and  _511
REMARK  197  A    between atoms: _511  and  _512
REMARK  198  A    between atoms: _515  and  _517
REMARK  199  A    between atoms: _517  and  _518
REMARK  200  A    between atoms: _521  and  _523
REMARK  201  A    between atoms: _523  and  _524
REMARK  202  A    between atoms: _523  and  _526
REMARK  203  A    between atoms: _526  and  _527
REMARK  204  A    between atoms: _532  and  _533
REMARK  205  A    between atoms: _535  and  _537
REMARK  206  A    between atoms: _537  and  _538
REMARK  207  A    between atoms: _537  and  _540
REMARK  208  A    between atoms: _540  and  _541
REMARK  209  A    between atoms: _551  and  _553
REMARK  210  A    between atoms: _553  and  _554
REMARK  211  A    between atoms: _553  and  _556
REMARK  212  A    between atoms: _556  and  _557
REMARK  213  A    between atoms: _562  and  _564
REMARK  214  A    between atoms: _564  and  _565
REMARK  215  A    between atoms: _567  and  _569
REMARK  216  A    between atoms: _569  and  _570
REMARK  217  A    between atoms: _569  and  _572
REMARK  218  A    between atoms: _575  and  _577
REMARK  219  A    between atoms: _577  and  _578
REMARK  220  A    between atoms: _577  and  _580
REMARK  221  A    between atoms: _580  and  _581
REMARK  222  A    between atoms: _587  and  _589
REMARK  223  A    between atoms: _589  and  _590
REMARK  224  A    between atoms: _592  and  _594
REMARK  225  A    between atoms: _594  and  _595
REMARK  226  A    between atoms: _597  and  _599
REMARK  227  A    between atoms: _599  and  _600
REMARK  228  A    between atoms: _599  and  _602
REMARK  229  A    between atoms: _602  and  _603
REMARK  230  A    between atoms: _606  and  _608
REMARK  231  A    between atoms: _608  and  _609
REMARK  232  A    between atoms: _608  and  _611
REMARK  233  A    between atoms: _611  and  _612
REMARK  234  A    between atoms: _615  and  _617
REMARK  235  A    between atoms: _617  and  _618
REMARK  236  A    between atoms: _617  and  _620
REMARK  237  A    between atoms: _620  and  _621
REMARK  238  A    between atoms: _624  and  _626
REMARK  239  A    between atoms: _626  and  _627
REMARK  240  A    between atoms: _626  and  _629
REMARK  241  A    between atoms: _629  and  _630
REMARK  242  A    between atoms: _630  and  _631
REMARK                            x       y       z     vdW  Elec       q    Type
REMARK                         _______ _______ _______ _____ _____    ______ ____
ROOT
ATOM      1  O   HOH     1      -4.011  45.928  89.982  0.00  0.00    +0.000 OA
ENDROOT
TORSDOF 0
REMARK  Name = ../refined-set-2016/1k1y/1k1y_pocket.pdb
REMARK  242 active torsions:
REMARK  status: ('A' for Active; 'I' for Inactive)
REMARK    1  A    between atoms: _1  and  _3
REMARK    2  A    between atoms: _3  and  _4
REMARK    3  A    between atoms: _3  and  _6
REMARK    4  A    between atoms: _6  and  _7
REMARK    5  A    between atoms: _12  and  _14
REMARK    6  A    between atoms: _14  and  _15
REMARK    7  A    between atoms: _14  and  _17
REMARK    8  A    between atoms: _17  and  _18
REMARK    9  A    between atoms: _23  and  _25
REMARK   10  A    between atoms: _25  and  _26
REMARK   11  A    between atoms: _25  and  _28
REMARK   12  A    between atoms: _28  and  _29
REMARK   13  A    between atoms: _34  and  _36
REMARK   14  A    between atoms: _36  and  _37
REMARK   15  A    between atoms: _36  and  _39
REMARK   16  A    between atoms: _39  and  _40
REMARK   17  A    between atoms: _40  and  _41
REMARK   18  A    between atoms: _47  and  _48
REMARK   19  A    between atoms: _53  and  _55
REMARK   20  A    between atoms: _55  and  _56
REMARK   21  A    between atoms: _55  and  _58
REMARK   22  A    between atoms: _58  and  _59
REMARK   23  A    between atoms: _64  and  _66
REMARK   24  A    between atoms: _66  and  _67
REMARK   25  A    between atoms: _66  and  _69
REMARK   26  A    between atoms: _69  and  _70
REMARK   27  A    between atoms: _75  and  _76
REMARK   28  A    between atoms: _78  and  _80
REMARK   29  A    between atoms: _80  and  _81
REMARK   30  A    between atoms: _80  and  _83
REMARK   31  A    between atoms: _83  and  _84
REMARK   32  A    between atoms: _89  and  _91
REMARK   33  A    between atoms: _91  and  _92
REMARK   34  A    between atoms: _91  and  _94
REMARK   35  A    between atoms: _94  and  _95
REMARK   36  A    between atoms: _95  and  _96
REMARK   37  A    between atoms: _99  and  _101
REMARK   38  A    between atoms: _101  and  _102
REMARK   39  A    between atoms: _101  and  _104
REMARK   40  A    between atoms: _104  and  _105
REMARK   41  A    between atoms: _115  and  _117
REMARK   42  A    between atoms: _117  and  _118
REMARK   43  A    between atoms: _117  and  _120
REMARK   44  A    between atoms: _120  and  _121
REMARK   45  A    between atoms: _124  and  _126
REMARK   46  A    between atoms: _126  and  _127
REMARK   47  A    between atoms: _126  and  _129
REMARK   48  A    between atoms: _129  and  _130
REMARK   49  A    between atoms: _133  and  _135
REMARK   50  A    between atoms: _135  and  _136
REMARK   51  A    between atoms: _135  and  _138
REMARK   52  A    between atoms: _138  and  _139
REMARK   53  A    between atoms: _139  and  _140
REMARK   54  A    between atoms: _143  and  _145
REMARK   55  A    between atoms: _145  and  _146
REMARK   56  A    between atoms: _145  and  _148
REMARK   57  A    between atoms: _148  and  _149
REMARK   58  A    between atoms: _149  and  _150
REMARK   59  A    between atoms: _150  and  _151
REMARK   60  A    between atoms: _160  and  _162
REMARK   61  A    between atoms: _162  and  _163
REMARK   62  A    between atoms: _162  and  _165
REMARK   63  A    between atoms: _165  and  _166
REMARK   64  A    between atoms: _169  and  _171
REMARK   65  A    between atoms: _171  and  _172
REMARK   66  A    between atoms: _171  and  _174
REMARK   67  A    between atoms: _174  and  _175
REMARK   68  A    between atoms: _178  and  _180
REMARK   69  A    between atoms: _180  and  _181
REMARK   70  A    between atoms: _180  and  _183
REMARK   71  A    between atoms: _183  and  _184
REMARK   72  A    between atoms: _187  and  _189
REMARK   73  A    between atoms: _189  and  _190
REMARK   74  A    between atoms: _189  and  _192
REMARK   75  A    between atoms: _192  and  _193
REMARK   76  A    between atoms: _193  and  _194
REMARK   77  A    between atoms: _197  and  _199
REMARK   78  A    between atoms: _199  and  _200
REMARK   79  A    between atoms: _199  and  _202
REMARK   80  A    between atoms: _202  and  _203
REMARK   81  A    between atoms: _203  and  _204
REMARK   82  A    between atoms: _204  and  _205
REMARK   83  A    between atoms: _205  and  _206
REMARK   84  A    between atoms: _210  and  _212
REMARK   85  A    between atoms: _212  and  _213
REMARK   86  A    between atoms: _212  and  _215
REMARK   87  A    between atoms: _215  and  _216
REMARK   88  A    between atoms: _219  and  _221
REMARK   89  A    between atoms: _221  and  _222
REMARK   90  A    between atoms: _221  and  _224
REMARK   91  A    between atoms: _224  and  _225
REMARK   92  A    between atoms: _225  and  _226
REMARK   93  A    between atoms: _226  and  _227
REMARK   94  A    between atoms: _236  and  _238
REMARK   95  A    between atoms: _238  and  _239
REMARK   96  A    between atoms: _238  and  _241
REMARK   97  A    between atoms: _241  and  _242
REMARK   98  A    between atoms: _247  and  _248
REMARK   99  A    between atoms: _250  and  _252
REMARK  100  A    between atoms: _252  and  _253
REMARK  101  A    between atoms: _252  and  _255
REMARK  102  A    between atoms: _255  and  _256
REMARK  103  A    between atoms: _259  and  _261
REMARK  104  A    between atoms: _261  and  _262
REMARK  105  A    between atoms: _261  and  _264
REMARK  106  A    between atoms: _264  and  _265
REMARK  107  A    between atoms: _269  and  _270
REMARK  108  A    between atoms: _275  and  _277
REMARK  109  A    between atoms: _277  and  _278
REMARK  110  A    between atoms: _277  and  _280
REMARK  111  A    between atoms: _280  and  _281
REMARK  112  A    between atoms: _287  and  _289
REMARK  113  A    between atoms: _289  and  _290
REMARK  114  A    between atoms: _289  and  _292
REMARK  115  A    between atoms: _292  and  _293
REMARK  116  A    between atoms: _293  and  _294
REMARK  117  A    between atoms: _294  and  _295
REMARK  118  A    between atoms: _304  and  _306
REMARK  119  A    between atoms: _306  and  _307
REMARK  120  A    between atoms: _306  and  _309
REMARK  121  A    between atoms: _309  and  _310
REMARK  122  A    between atoms: _316  and  _318
REMARK  123  A    between atoms: _318  and  _319
REMARK  124  A    between atoms: _318  and  _321
REMARK  125  A    between atoms: _321  and  _322
REMARK  126  A    between atoms: _327  and  _329
REMARK  127  A    between atoms: _329  and  _330
REMARK  128  A    between atoms: _329  and  _332
REMARK  129  A    between atoms: _332  and  _333
REMARK  130  A    between atoms: _336  and  _338
REMARK  131  A    between atoms: _338  and  _339
REMARK  132  A    between atoms: _338  and  _341
REMARK  133  A    between atoms: _341  and  _342
REMARK  134  A    between atoms: _345  and  _347
REMARK  135  A    between atoms: _347  and  _348
REMARK  136  A    between atoms: _350  and  _352
REMARK  137  A    between atoms: _352  and  _353
REMARK  138  A    between atoms: _352  and  _355
REMARK  139  A    between atoms: _355  and  _356
REMARK  140  A    between atoms: _356  and  _357
REMARK  141  A    between atoms: _360  and  _362
REMARK  142  A    between atoms: _362  and  _363
REMARK  143  A    between atoms: _362  and  _365
REMARK  144  A    between atoms: _365  and  _366
REMARK  145  A    between atoms: _366  and  _367
REMARK  146  A    between atoms: _367  and  _368
REMARK  147  A    between atoms: _368  and  _369
REMARK  148  A    between atoms: _373  and  _375
REMARK  149  A    between atoms: _375  and  _376
REMARK  150  A    between atoms: _375  and  _378
REMARK  151  A    between atoms: _378  and  _379
REMARK  152  A    between atoms: _390  and  _391
REMARK  153  A    between atoms: _396  and  _398
REMARK  154  A    between atoms: _398  and  _399
REMARK  155  A    between atoms: _401  and  _403
REMARK  156  A    between atoms: _403  and  _404
REMARK  157  A    between atoms: _403  and  _406
REMARK  158  A    between atoms: _406  and  _407
REMARK  159  A    between atoms: _410  and  _412
REMARK  160  A    between atoms: _412  and  _413
REMARK  161  A    between atoms: _412  and  _415
REMARK  162  A    between atoms: _415  and  _416
REMARK  163  A    between atoms: _418  and  _420
REMARK  164  A    between atoms: _420  and  _421
REMARK  165  A    between atoms: _420  and  _423
REMARK  166  A    between atoms: _423  and  _424
REMARK  167  A    between atoms: _429  and  _430
REMARK  168  A    between atoms: _432  and  _434
REMARK  169  A    between atoms: _434  and  _435
REMARK  170  A    between atoms: _434  and  _437
REMARK  171  A    between atoms: _437  and  _438
REMARK  172  A    between atoms: _444  and  _446
REMARK  173  A    between atoms: _446  and  _447
REMARK  174  A    between atoms: _446  and  _449
REMARK  175  A    between atoms: _449  and  _450
REMARK  176  A    between atoms: _450  and  _451
REMARK  177  A    between atoms: _454  and  _456
REMARK  178  A    between atoms: _456  and  _457
REMARK  179  A    between atoms: _456  and  _459
REMARK  180  A    between atoms: _459  and  _460
REMARK  181  A    between atoms: _460  and  _461
REMARK  182  A    between atoms: _463  and  _465
REMARK  183  A    between atoms: _465  and  _466
REMARK  184  A    between atoms: _465  and  _468
REMARK  185  A    between atoms: _468  and  _469
REMARK  186  A    between atoms: _479  and  _481
REMARK  187  A    between atoms: _481  and  _482
REMARK  188  A    between atoms: _481  and  _484
REMARK  189  A    between atoms: _484  and  _485
REMARK  190  A    between atoms: _495  and  _497
REMARK  191  A    between atoms: _497  and  _498
REMARK  192  A    between atoms: _497  and  _500
REMARK  193  A    between atoms: _500  and  _501
REMARK  194  A    between atoms: _506  and  _508
REMARK  195  A    between atoms: _508  and  _509
REMARK  196  A    between atoms: _508  and  _511
REMARK  197  A    between atoms: _511  and  _512
REMARK  198  A    between atoms: _515  and  _517
REMARK  199  A    between atoms: _517  and  _518
REMARK  200  A    between atoms: _521  and  _523
REMARK  201  A    between atoms: _523  and  _524
REMARK  202  A    between atoms: _523  and  _526
REMARK  203  A    between atoms: _526  and  _527
REMARK  204  A    between atoms: _532  and  _533
REMARK  205  A    between atoms: _535  and  _537
REMARK  206  A    between atoms: _537  and  _538
REMARK  207  A    between atoms: _537  and  _540
REMARK  208  A    between atoms: _540  and  _541
REMARK  209  A    between atoms: _551  and  _553
REMARK  210  A    between atoms: _553  and  _554
REMARK  211  A    between atoms: _553  and  _556
REMARK  212  A    between atoms: _556  and  _557
REMARK  213  A    between atoms: _562  and  _564
REMARK  214  A    between atoms: _564  and  _565
REMARK  215  A    between atoms: _567  and  _569
REMARK  216  A    between atoms: _569  and  _570
REMARK  217  A    between atoms: _569  and  _572
REMARK  218  A    between atoms: _575  and  _577
REMARK  219  A    between atoms: _577  and  _578
REMARK  220  A    between atoms: _577  and  _580
REMARK  221  A    between atoms: _580  and  _581
REMARK  222  A    between atoms: _587  and  _589
REMARK  223  A    between atoms: _589  and  _590
REMARK  224  A    between atoms: _592  and  _594
REMARK  225  A    between atoms: _594  and  _595
REMARK  226  A    between atoms: _597  and  _599
REMARK  227  A    between atoms: _599  and  _600
REMARK  228  A    between atoms: _599  and  _602
REMARK  229  A    between atoms: _602  and  _603
REMARK  230  A    between atoms: _606  and  _608
REMARK  231  A    between atoms: _608  and  _609
REMARK  232  A    between atoms: _608  and  _611
REMARK  233  A    between atoms: _611  and  _612
REMARK  234  A    between atoms: _615  and  _617
REMARK  235  A    between atoms: _617  and  _618
REMARK  236  A    between atoms: _617  and  _620
REMARK  237  A    between atoms: _620  and  _621
REMARK  238  A    between atoms: _624  and  _626
REMARK  239  A    between atoms: _626  and  _627
REMARK  240  A    between atoms: _626  and  _629
REMARK  241  A    between atoms: _629  and  _630
REMARK  242  A    between atoms: _630  and  _631
REMARK                            x       y       z     vdW  Elec       q    Type
REMARK                         _______ _______ _______ _____ _____    ______ ____
ROOT
ATOM      1  O   HOH     1      -3.689  56.285  88.850  0.00  0.00    +0.000 OA
ENDROOT
TORSDOF 0
REMARK  Name = ../refined-set-2016/1k1y/1k1y_pocket.pdb
REMARK  242 active torsions:
REMARK  status: ('A' for Active; 'I' for Inactive)
REMARK    1  A    between atoms: _1  and  _3
REMARK    2  A    between atoms: _3  and  _4
REMARK    3  A    between atoms: _3  and  _6
REMARK    4  A    between atoms: _6  and  _7
REMARK    5  A    between atoms: _12  and  _14
REMARK    6  A    between atoms: _14  and  _15
REMARK    7  A    between atoms: _14  and  _17
REMARK    8  A    between atoms: _17  and  _18
REMARK    9  A    between atoms: _23  and  _25
REMARK   10  A    between atoms: _25  and  _26
REMARK   11  A    between atoms: _25  and  _28
REMARK   12  A    between atoms: _28  and  _29
REMARK   13  A    between atoms: _34  and  _36
REMARK   14  A    between atoms: _36  and  _37
REMARK   15  A    between atoms: _36  and  _39
REMARK   16  A    between atoms: _39  and  _40
REMARK   17  A    between atoms: _40  and  _41
REMARK   18  A    between atoms: _47  and  _48
REMARK   19  A    between atoms: _53  and  _55
REMARK   20  A    between atoms: _55  and  _56
REMARK   21  A    between atoms: _55  and  _58
REMARK   22  A    between atoms: _58  and  _59
REMARK   23  A    between atoms: _64  and  _66
REMARK   24  A    between atoms: _66  and  _67
REMARK   25  A    between atoms: _66  and  _69
REMARK   26  A    between atoms: _69  and  _70
REMARK   27  A    between atoms: _75  and  _76
REMARK   28  A    between atoms: _78  and  _80
REMARK   29  A    between atoms: _80  and  _81
REMARK   30  A    between atoms: _80  and  _83
REMARK   31  A    between atoms: _83  and  _84
REMARK   32  A    between atoms: _89  and  _91
REMARK   33  A    between atoms: _91  and  _92
REMARK   34  A    between atoms: _91  and  _94
REMARK   35  A    between atoms: _94  and  _95
REMARK   36  A    between atoms: _95  and  _96
REMARK   37  A    between atoms: _99  and  _101
REMARK   38  A    between atoms: _101  and  _102
REMARK   39  A    between atoms: _101  and  _104
REMARK   40  A    between atoms: _104  and  _105
REMARK   41  A    between atoms: _115  and  _117
REMARK   42  A    between atoms: _117  and  _118
REMARK   43  A    between atoms: _117  and  _120
REMARK   44  A    between atoms: _120  and  _121
REMARK   45  A    between atoms: _124  and  _126
REMARK   46  A    between atoms: _126  and  _127
REMARK   47  A    between atoms: _126  and  _129
REMARK   48  A    between atoms: _129  and  _130
REMARK   49  A    between atoms: _133  and  _135
REMARK   50  A    between atoms: _135  and  _136
REMARK   51  A    between atoms: _135  and  _138
REMARK   52  A    between atoms: _138  and  _139
REMARK   53  A    between atoms: _139  and  _140
REMARK   54  A    between atoms: _143  and  _145
REMARK   55  A    between atoms: _145  and  _146
REMARK   56  A    between atoms: _145  and  _148
REMARK   57  A    between atoms: _148  and  _149
REMARK   58  A    between atoms: _149  and  _150
REMARK   59  A    between atoms: _150  and  _151
REMARK   60  A    between atoms: _160  and  _162
REMARK   61  A    between atoms: _162  and  _163
REMARK   62  A    between atoms: _162  and  _165
REMARK   63  A    between atoms: _165  and  _166
REMARK   64  A    between atoms: _169  and  _171
REMARK   65  A    between atoms: _171  and  _172
REMARK   66  A    between atoms: _171  and  _174
REMARK   67  A    between atoms: _174  and  _175
REMARK   68  A    between atoms: _178  and  _180
REMARK   69  A    between atoms: _180  and  _181
REMARK   70  A    between atoms: _180  and  _183
REMARK   71  A    between atoms: _183  and  _184
REMARK   72  A    between atoms: _187  and  _189
REMARK   73  A    between atoms: _189  and  _190
REMARK   74  A    between atoms: _189  and  _192
REMARK   75  A    between atoms: _192  and  _193
REMARK   76  A    between atoms: _193  and  _194
REMARK   77  A    between atoms: _197  and  _199
REMARK   78  A    between atoms: _199  and  _200
REMARK   79  A    between atoms: _199  and  _202
REMARK   80  A    between atoms: _202  and  _203
REMARK   81  A    between atoms: _203  and  _204
REMARK   82  A    between atoms: _204  and  _205
REMARK   83  A    between atoms: _205  and  _206
REMARK   84  A    between atoms: _210  and  _212
REMARK   85  A    between atoms: _212  and  _213
REMARK   86  A    between atoms: _212  and  _215
REMARK   87  A    between atoms: _215  and  _216
REMARK   88  A    between atoms: _219  and  _221
REMARK   89  A    between atoms: _221  and  _222
REMARK   90  A    between atoms: _221  and  _224
REMARK   91  A    between atoms: _224  and  _225
REMARK   92  A    between atoms: _225  and  _226
REMARK   93  A    between atoms: _226  and  _227
REMARK   94  A    between atoms: _236  and  _238
REMARK   95  A    between atoms: _238  and  _239
REMARK   96  A    between atoms: _238  and  _241
REMARK   97  A    between atoms: _241  and  _242
REMARK   98  A    between atoms: _247  and  _248
REMARK   99  A    between atoms: _250  and  _252
REMARK  100  A    between atoms: _252  and  _253
REMARK  101  A    between atoms: _252  and  _255
REMARK  102  A    between atoms: _255  and  _256
REMARK  103  A    between atoms: _259  and  _261
REMARK  104  A    between atoms: _261  and  _262
REMARK  105  A    between atoms: _261  and  _264
REMARK  106  A    between atoms: _264  and  _265
REMARK  107  A    between atoms: _269  and  _270
REMARK  108  A    between atoms: _275  and  _277
REMARK  109  A    between atoms: _277  and  _278
REMARK  110  A    between atoms: _277  and  _280
REMARK  111  A    between atoms: _280  and  _281
REMARK  112  A    between atoms: _287  and  _289
REMARK  113  A    between atoms: _289  and  _290
REMARK  114  A    between atoms: _289  and  _292
REMARK  115  A    between atoms: _292  and  _293
REMARK  116  A    between atoms: _293  and  _294
REMARK  117  A    between atoms: _294  and  _295
REMARK  118  A    between atoms: _304  and  _306
REMARK  119  A    between atoms: _306  and  _307
REMARK  120  A    between atoms: _306  and  _309
REMARK  121  A    between atoms: _309  and  _310
REMARK  122  A    between atoms: _316  and  _318
REMARK  123  A    between atoms: _318  and  _319
REMARK  124  A    between atoms: _318  and  _321
REMARK  125  A    between atoms: _321  and  _322
REMARK  126  A    between atoms: _327  and  _329
REMARK  127  A    between atoms: _329  and  _330
REMARK  128  A    between atoms: _329  and  _332
REMARK  129  A    between atoms: _332  and  _333
REMARK  130  A    between atoms: _336  and  _338
REMARK  131  A    between atoms: _338  and  _339
REMARK  132  A    between atoms: _338  and  _341
REMARK  133  A    between atoms: _341  and  _342
REMARK  134  A    between atoms: _345  and  _347
REMARK  135  A    between atoms: _347  and  _348
REMARK  136  A    between atoms: _350  and  _352
REMARK  137  A    between atoms: _352  and  _353
REMARK  138  A    between atoms: _352  and  _355
REMARK  139  A    between atoms: _355  and  _356
REMARK  140  A    between atoms: _356  and  _357
REMARK  141  A    between atoms: _360  and  _362
REMARK  142  A    between atoms: _362  and  _363
REMARK  143  A    between atoms: _362  and  _365
REMARK  144  A    between atoms: _365  and  _366
REMARK  145  A    between atoms: _366  and  _367
REMARK  146  A    between atoms: _367  and  _368
REMARK  147  A    between atoms: _368  and  _369
REMARK  148  A    between atoms: _373  and  _375
REMARK  149  A    between atoms: _375  and  _376
REMARK  150  A    between atoms: _375  and  _378
REMARK  151  A    between atoms: _378  and  _379
REMARK  152  A    between atoms: _390  and  _391
REMARK  153  A    between atoms: _396  and  _398
REMARK  154  A    between atoms: _398  and  _399
REMARK  155  A    between atoms: _401  and  _403
REMARK  156  A    between atoms: _403  and  _404
REMARK  157  A    between atoms: _403  and  _406
REMARK  158  A    between atoms: _406  and  _407
REMARK  159  A    between atoms: _410  and  _412
REMARK  160  A    between atoms: _412  and  _413
REMARK  161  A    between atoms: _412  and  _415
REMARK  162  A    between atoms: _415  and  _416
REMARK  163  A    between atoms: _418  and  _420
REMARK  164  A    between atoms: _420  and  _421
REMARK  165  A    between atoms: _420  and  _423
REMARK  166  A    between atoms: _423  and  _424
REMARK  167  A    between atoms: _429  and  _430
REMARK  168  A    between atoms: _432  and  _434
REMARK  169  A    between atoms: _434  and  _435
REMARK  170  A    between atoms: _434  and  _437
REMARK  171  A    between atoms: _437  and  _438
REMARK  172  A    between atoms: _444  and  _446
REMARK  173  A    between atoms: _446  and  _447
REMARK  174  A    between atoms: _446  and  _449
REMARK  175  A    between atoms: _449  and  _450
REMARK  176  A    between atoms: _450  and  _451
REMARK  177  A    between atoms: _454  and  _456
REMARK  178  A    between atoms: _456  and  _457
REMARK  179  A    between atoms: _456  and  _459
REMARK  180  A    between atoms: _459  and  _460
REMARK  181  A    between atoms: _460  and  _461
REMARK  182  A    between atoms: _463  and  _465
REMARK  183  A    between atoms: _465  and  _466
REMARK  184  A    between atoms: _465  and  _468
REMARK  185  A    between atoms: _468  and  _469
REMARK  186  A    between atoms: _479  and  _481
REMARK  187  A    between atoms: _481  and  _482
REMARK  188  A    between atoms: _481  and  _484
REMARK  189  A    between atoms: _484  and  _485
REMARK  190  A    between atoms: _495  and  _497
REMARK  191  A    between atoms: _497  and  _498
REMARK  192  A    between atoms: _497  and  _500
REMARK  193  A    between atoms: _500  and  _501
REMARK  194  A    between atoms: _506  and  _508
REMARK  195  A    between atoms: _508  and  _509
REMARK  196  A    between atoms: _508  and  _511
REMARK  197  A    between atoms: _511  and  _512
REMARK  198  A    between atoms: _515  and  _517
REMARK  199  A    between atoms: _517  and  _518
REMARK  200  A    between atoms: _521  and  _523
REMARK  201  A    between atoms: _523  and  _524
REMARK  202  A    between atoms: _523  and  _526
REMARK  203  A    between atoms: _526  and  _527
REMARK  204  A    between atoms: _532  and  _533
REMARK  205  A    between atoms: _535  and  _537
REMARK  206  A    between atoms: _537  and  _538
REMARK  207  A    between atoms: _537  and  _540
REMARK  208  A    between atoms: _540  and  _541
REMARK  209  A    between atoms: _551  and  _553
REMARK  210  A    between atoms: _553  and  _554
REMARK  211  A    between atoms: _553  and  _556
REMARK  212  A    between atoms: _556  and  _557
REMARK  213  A    between atoms: _562  and  _564
REMARK  214  A    between atoms: _564  and  _565
REMARK  215  A    between atoms: _567  and  _569
REMARK  216  A    between atoms: _569  and  _570
REMARK  217  A    between atoms: _569  and  _572
REMARK  218  A    between atoms: _575  and  _577
REMARK  219  A    between atoms: _577  and  _578
REMARK  220  A    between atoms: _577  and  _580
REMARK  221  A    between atoms: _580  and  _581
REMARK  222  A    between atoms: _587  and  _589
REMARK  223  A    between atoms: _589  and  _590
REMARK  224  A    between atoms: _592  and  _594
REMARK  225  A    between atoms: _594  and  _595
REMARK  226  A    between atoms: _597  and  _599
REMARK  227  A    between atoms: _599  and  _600
REMARK  228  A    between atoms: _599  and  _602
REMARK  229  A    between atoms: _602  and  _603
REMARK  230  A    between atoms: _606  and  _608
REMARK  231  A    between atoms: _608  and  _609
REMARK  232  A    between atoms: _608  and  _611
REMARK  233  A    between atoms: _611  and  _612
REMARK  234  A    between atoms: _615  and  _617
REMARK  235  A    between atoms: _617  and  _618
REMARK  236  A    between atoms: _617  and  _620
REMARK  237  A    between atoms: _620  and  _621
REMARK  238  A    between atoms: _624  and  _626
REMARK  239  A    between atoms: _626  and  _627
REMARK  240  A    between atoms: _626  and  _629
REMARK  241  A    between atoms: _629  and  _630
REMARK  242  A    between atoms: _630  and  _631
REMARK                            x       y       z     vdW  Elec       q    Type
REMARK                         _______ _______ _______ _____ _____    ______ ____
ROOT
ATOM      1  O   HOH     1       1.170  60.807  88.047  0.00  0.00    +0.000 OA
ENDROOT
TORSDOF 0
REMARK  Name = ../refined-set-2016/1k1y/1k1y_pocket.pdb
REMARK  242 active torsions:
REMARK  status: ('A' for Active; 'I' for Inactive)
REMARK    1  A    between atoms: _1  and  _3
REMARK    2  A    between atoms: _3  and  _4
REMARK    3  A    between atoms: _3  and  _6
REMARK    4  A    between atoms: _6  and  _7
REMARK    5  A    between atoms: _12  and  _14
REMARK    6  A    between atoms: _14  and  _15
REMARK    7  A    between atoms: _14  and  _17
REMARK    8  A    between atoms: _17  and  _18
REMARK    9  A    between atoms: _23  and  _25
REMARK   10  A    between atoms: _25  and  _26
REMARK   11  A    between atoms: _25  and  _28
REMARK   12  A    between atoms: _28  and  _29
REMARK   13  A    between atoms: _34  and  _36
REMARK   14  A    between atoms: _36  and  _37
REMARK   15  A    between atoms: _36  and  _39
REMARK   16  A    between atoms: _39  and  _40
REMARK   17  A    between atoms: _40  and  _41
REMARK   18  A    between atoms: _47  and  _48
REMARK   19  A    between atoms: _53  and  _55
REMARK   20  A    between atoms: _55  and  _56
REMARK   21  A    between atoms: _55  and  _58
REMARK   22  A    between atoms: _58  and  _59
REMARK   23  A    between atoms: _64  and  _66
REMARK   24  A    between atoms: _66  and  _67
REMARK   25  A    between atoms: _66  and  _69
REMARK   26  A    between atoms: _69  and  _70
REMARK   27  A    between atoms: _75  and  _76
REMARK   28  A    between atoms: _78  and  _80
REMARK   29  A    between atoms: _80  and  _81
REMARK   30  A    between atoms: _80  and  _83
REMARK   31  A    between atoms: _83  and  _84
REMARK   32  A    between atoms: _89  and  _91
REMARK   33  A    between atoms: _91  and  _92
REMARK   34  A    between atoms: _91  and  _94
REMARK   35  A    between atoms: _94  and  _95
REMARK   36  A    between atoms: _95  and  _96
REMARK   37  A    between atoms: _99  and  _101
REMARK   38  A    between atoms: _101  and  _102
REMARK   39  A    between atoms: _101  and  _104
REMARK   40  A    between atoms: _104  and  _105
REMARK   41  A    between atoms: _115  and  _117
REMARK   42  A    between atoms: _117  and  _118
REMARK   43  A    between atoms: _117  and  _120
REMARK   44  A    between atoms: _120  and  _121
REMARK   45  A    between atoms: _124  and  _126
REMARK   46  A    between atoms: _126  and  _127
REMARK   47  A    between atoms: _126  and  _129
REMARK   48  A    between atoms: _129  and  _130
REMARK   49  A    between atoms: _133  and  _135
REMARK   50  A    between atoms: _135  and  _136
REMARK   51  A    between atoms: _135  and  _138
REMARK   52  A    between atoms: _138  and  _139
REMARK   53  A    between atoms: _139  and  _140
REMARK   54  A    between atoms: _143  and  _145
REMARK   55  A    between atoms: _145  and  _146
REMARK   56  A    between atoms: _145  and  _148
REMARK   57  A    between atoms: _148  and  _149
REMARK   58  A    between atoms: _149  and  _150
REMARK   59  A    between atoms: _150  and  _151
REMARK   60  A    between atoms: _160  and  _162
REMARK   61  A    between atoms: _162  and  _163
REMARK   62  A    between atoms: _162  and  _165
REMARK   63  A    between atoms: _165  and  _166
REMARK   64  A    between atoms: _169  and  _171
REMARK   65  A    between atoms: _171  and  _172
REMARK   66  A    between atoms: _171  and  _174
REMARK   67  A    between atoms: _174  and  _175
REMARK   68  A    between atoms: _178  and  _180
REMARK   69  A    between atoms: _180  and  _181
REMARK   70  A    between atoms: _180  and  _183
REMARK   71  A    between atoms: _183  and  _184
REMARK   72  A    between atoms: _187  and  _189
REMARK   73  A    between atoms: _189  and  _190
REMARK   74  A    between atoms: _189  and  _192
REMARK   75  A    between atoms: _192  and  _193
REMARK   76  A    between atoms: _193  and  _194
REMARK   77  A    between atoms: _197  and  _199
REMARK   78  A    between atoms: _199  and  _200
REMARK   79  A    between atoms: _199  and  _202
REMARK   80  A    between atoms: _202  and  _203
REMARK   81  A    between atoms: _203  and  _204
REMARK   82  A    between atoms: _204  and  _205
REMARK   83  A    between atoms: _205  and  _206
REMARK   84  A    between atoms: _210  and  _212
REMARK   85  A    between atoms: _212  and  _213
REMARK   86  A    between atoms: _212  and  _215
REMARK   87  A    between atoms: _215  and  _216
REMARK   88  A    between atoms: _219  and  _221
REMARK   89  A    between atoms: _221  and  _222
REMARK   90  A    between atoms: _221  and  _224
REMARK   91  A    between atoms: _224  and  _225
REMARK   92  A    between atoms: _225  and  _226
REMARK   93  A    between atoms: _226  and  _227
REMARK   94  A    between atoms: _236  and  _238
REMARK   95  A    between atoms: _238  and  _239
REMARK   96  A    between atoms: _238  and  _241
REMARK   97  A    between atoms: _241  and  _242
REMARK   98  A    between atoms: _247  and  _248
REMARK   99  A    between atoms: _250  and  _252
REMARK  100  A    between atoms: _252  and  _253
REMARK  101  A    between atoms: _252  and  _255
REMARK  102  A    between atoms: _255  and  _256
REMARK  103  A    between atoms: _259  and  _261
REMARK  104  A    between atoms: _261  and  _262
REMARK  105  A    between atoms: _261  and  _264
REMARK  106  A    between atoms: _264  and  _265
REMARK  107  A    between atoms: _269  and  _270
REMARK  108  A    between atoms: _275  and  _277
REMARK  109  A    between atoms: _277  and  _278
REMARK  110  A    between atoms: _277  and  _280
REMARK  111  A    between atoms: _280  and  _281
REMARK  112  A    between atoms: _287  and  _289
REMARK  113  A    between atoms: _289  and  _290
REMARK  114  A    between atoms: _289  and  _292
REMARK  115  A    between atoms: _292  and  _293
REMARK  116  A    between atoms: _293  and  _294
REMARK  117  A    between atoms: _294  and  _295
REMARK  118  A    between atoms: _304  and  _306
REMARK  119  A    between atoms: _306  and  _307
REMARK  120  A    between atoms: _306  and  _309
REMARK  121  A    between atoms: _309  and  _310
REMARK  122  A    between atoms: _316  and  _318
REMARK  123  A    between atoms: _318  and  _319
REMARK  124  A    between atoms: _318  and  _321
REMARK  125  A    between atoms: _321  and  _322
REMARK  126  A    between atoms: _327  and  _329
REMARK  127  A    between atoms: _329  and  _330
REMARK  128  A    between atoms: _329  and  _332
REMARK  129  A    between atoms: _332  and  _333
REMARK  130  A    between atoms: _336  and  _338
REMARK  131  A    between atoms: _338  and  _339
REMARK  132  A    between atoms: _338  and  _341
REMARK  133  A    between atoms: _341  and  _342
REMARK  134  A    between atoms: _345  and  _347
REMARK  135  A    between atoms: _347  and  _348
REMARK  136  A    between atoms: _350  and  _352
REMARK  137  A    between atoms: _352  and  _353
REMARK  138  A    between atoms: _352  and  _355
REMARK  139  A    between atoms: _355  and  _356
REMARK  140  A    between atoms: _356  and  _357
REMARK  141  A    between atoms: _360  and  _362
REMARK  142  A    between atoms: _362  and  _363
REMARK  143  A    between atoms: _362  and  _365
REMARK  144  A    between atoms: _365  and  _366
REMARK  145  A    between atoms: _366  and  _367
REMARK  146  A    between atoms: _367  and  _368
REMARK  147  A    between atoms: _368  and  _369
REMARK  148  A    between atoms: _373  and  _375
REMARK  149  A    between atoms: _375  and  _376
REMARK  150  A    between atoms: _375  and  _378
REMARK  151  A    between atoms: _378  and  _379
REMARK  152  A    between atoms: _390  and  _391
REMARK  153  A    between atoms: _396  and  _398
REMARK  154  A    between atoms: _398  and  _399
REMARK  155  A    between atoms: _401  and  _403
REMARK  156  A    between atoms: _403  and  _404
REMARK  157  A    between atoms: _403  and  _406
REMARK  158  A    between atoms: _406  and  _407
REMARK  159  A    between atoms: _410  and  _412
REMARK  160  A    between atoms: _412  and  _413
REMARK  161  A    between atoms: _412  and  _415
REMARK  162  A    between atoms: _415  and  _416
REMARK  163  A    between atoms: _418  and  _420
REMARK  164  A    between atoms: _420  and  _421
REMARK  165  A    between atoms: _420  and  _423
REMARK  166  A    between atoms: _423  and  _424
REMARK  167  A    between atoms: _429  and  _430
REMARK  168  A    between atoms: _432  and  _434
REMARK  169  A    between atoms: _434  and  _435
REMARK  170  A    between atoms: _434  and  _437
REMARK  171  A    between atoms: _437  and  _438
REMARK  172  A    between atoms: _444  and  _446
REMARK  173  A    between atoms: _446  and  _447
REMARK  174  A    between atoms: _446  and  _449
REMARK  175  A    between atoms: _449  and  _450
REMARK  176  A    between atoms: _450  and  _451
REMARK  177  A    between atoms: _454  and  _456
REMARK  178  A    between atoms: _456  and  _457
REMARK  179  A    between atoms: _456  and  _459
REMARK  180  A    between atoms: _459  and  _460
REMARK  181  A    between atoms: _460  and  _461
REMARK  182  A    between atoms: _463  and  _465
REMARK  183  A    between atoms: _465  and  _466
REMARK  184  A    between atoms: _465  and  _468
REMARK  185  A    between atoms: _468  and  _469
REMARK  186  A    between atoms: _479  and  _481
REMARK  187  A    between atoms: _481  and  _482
REMARK  188  A    between atoms: _481  and  _484
REMARK  189  A    between atoms: _484  and  _485
REMARK  190  A    between atoms: _495  and  _497
REMARK  191  A    between atoms: _497  and  _498
REMARK  192  A    between atoms: _497  and  _500
REMARK  193  A    between atoms: _500  and  _501
REMARK  194  A    between atoms: _506  and  _508
REMARK  195  A    between atoms: _508  and  _509
REMARK  196  A    between atoms: _508  and  _511
REMARK  197  A    between atoms: _511  and  _512
REMARK  198  A    between atoms: _515  and  _517
REMARK  199  A    between atoms: _517  and  _518
REMARK  200  A    between atoms: _521  and  _523
REMARK  201  A    between atoms: _523  and  _524
REMARK  202  A    between atoms: _523  and  _526
REMARK  203  A    between atoms: _526  and  _527
REMARK  204  A    between atoms: _532  and  _533
REMARK  205  A    between atoms: _535  and  _537
REMARK  206  A    between atoms: _537  and  _538
REMARK  207  A    between atoms: _537  and  _540
REMARK  208  A    between atoms: _540  and  _541
REMARK  209  A    between atoms: _551  and  _553
REMARK  210  A    between atoms: _553  and  _554
REMARK  211  A    between atoms: _553  and  _556
REMARK  212  A    between atoms: _556  and  _557
REMARK  213  A    between atoms: _562  and  _564
REMARK  214  A    between atoms: _564  and  _565
REMARK  215  A    between atoms: _567  and  _569
REMARK  216  A    between atoms: _569  and  _570
REMARK  217  A    between atoms: _569  and  _572
REMARK  218  A    between atoms: _575  and  _577
REMARK  219  A    between atoms: _577  and  _578
REMARK  220  A    between atoms: _577  and  _580
REMARK  221  A    between atoms: _580  and  _581
REMARK  222  A    between atoms: _587  and  _589
REMARK  223  A    between atoms: _589  and  _590
REMARK  224  A    between atoms: _592  and  _594
REMARK  225  A    between atoms: _594  and  _595
REMARK  226  A    between atoms: _597  and  _599
REMARK  227  A    between atoms: _599  and  _600
REMARK  228  A    between atoms: _599  and  _602
REMARK  229  A    between atoms: _602  and  _603
REMARK  230  A    between atoms: _606  and  _608
REMARK  231  A    between atoms: _608  and  _609
REMARK  232  A    between atoms: _608  and  _611
REMARK  233  A    between atoms: _611  and  _612
REMARK  234  A    between atoms: _615  and  _617
REMARK  235  A    between atoms: _617  and  _618
REMARK  236  A    between atoms: _617  and  _620
REMARK  237  A    between atoms: _620  and  _621
REMARK  238  A    between atoms: _624  and  _626
REMARK  239  A    between atoms: _626  and  _627
REMARK  240  A    between atoms: _626  and  _629
REMARK  241  A    between atoms: _629  and  _630
REMARK  242  A    between atoms: _630  and  _631
REMARK                            x       y       z     vdW  Elec       q    Type
REMARK                         _______ _______ _______ _____ _____    ______ ____
ROOT
ATOM      1  O   HOH     1      -1.994  64.178  93.968  0.00  0.00    +0.000 OA
ENDROOT
TORSDOF 0
REMARK  Name = ../refined-set-2016/1k1y/1k1y_pocket.pdb
REMARK  242 active torsions:
REMARK  status: ('A' for Active; 'I' for Inactive)
REMARK    1  A    between atoms: _1  and  _3
REMARK    2  A    between atoms: _3  and  _4
REMARK    3  A    between atoms: _3  and  _6
REMARK    4  A    between atoms: _6  and  _7
REMARK    5  A    between atoms: _12  and  _14
REMARK    6  A    between atoms: _14  and  _15
REMARK    7  A    between atoms: _14  and  _17
REMARK    8  A    between atoms: _17  and  _18
REMARK    9  A    between atoms: _23  and  _25
REMARK   10  A    between atoms: _25  and  _26
REMARK   11  A    between atoms: _25  and  _28
REMARK   12  A    between atoms: _28  and  _29
REMARK   13  A    between atoms: _34  and  _36
REMARK   14  A    between atoms: _36  and  _37
REMARK   15  A    between atoms: _36  and  _39
REMARK   16  A    between atoms: _39  and  _40
REMARK   17  A    between atoms: _40  and  _41
REMARK   18  A    between atoms: _47  and  _48
REMARK   19  A    between atoms: _53  and  _55
REMARK   20  A    between atoms: _55  and  _56
REMARK   21  A    between atoms: _55  and  _58
REMARK   22  A    between atoms: _58  and  _59
REMARK   23  A    between atoms: _64  and  _66
REMARK   24  A    between atoms: _66  and  _67
REMARK   25  A    between atoms: _66  and  _69
REMARK   26  A    between atoms: _69  and  _70
REMARK   27  A    between atoms: _75  and  _76
REMARK   28  A    between atoms: _78  and  _80
REMARK   29  A    between atoms: _80  and  _81
REMARK   30  A    between atoms: _80  and  _83
REMARK   31  A    between atoms: _83  and  _84
REMARK   32  A    between atoms: _89  and  _91
REMARK   33  A    between atoms: _91  and  _92
REMARK   34  A    between atoms: _91  and  _94
REMARK   35  A    between atoms: _94  and  _95
REMARK   36  A    between atoms: _95  and  _96
REMARK   37  A    between atoms: _99  and  _101
REMARK   38  A    between atoms: _101  and  _102
REMARK   39  A    between atoms: _101  and  _104
REMARK   40  A    between atoms: _104  and  _105
REMARK   41  A    between atoms: _115  and  _117
REMARK   42  A    between atoms: _117  and  _118
REMARK   43  A    between atoms: _117  and  _120
REMARK   44  A    between atoms: _120  and  _121
REMARK   45  A    between atoms: _124  and  _126
REMARK   46  A    between atoms: _126  and  _127
REMARK   47  A    between atoms: _126  and  _129
REMARK   48  A    between atoms: _129  and  _130
REMARK   49  A    between atoms: _133  and  _135
REMARK   50  A    between atoms: _135  and  _136
REMARK   51  A    between atoms: _135  and  _138
REMARK   52  A    between atoms: _138  and  _139
REMARK   53  A    between atoms: _139  and  _140
REMARK   54  A    between atoms: _143  and  _145
REMARK   55  A    between atoms: _145  and  _146
REMARK   56  A    between atoms: _145  and  _148
REMARK   57  A    between atoms: _148  and  _149
REMARK   58  A    between atoms: _149  and  _150
REMARK   59  A    between atoms: _150  and  _151
REMARK   60  A    between atoms: _160  and  _162
REMARK   61  A    between atoms: _162  and  _163
REMARK   62  A    between atoms: _162  and  _165
REMARK   63  A    between atoms: _165  and  _166
REMARK   64  A    between atoms: _169  and  _171
REMARK   65  A    between atoms: _171  and  _172
REMARK   66  A    between atoms: _171  and  _174
REMARK   67  A    between atoms: _174  and  _175
REMARK   68  A    between atoms: _178  and  _180
REMARK   69  A    between atoms: _180  and  _181
REMARK   70  A    between atoms: _180  and  _183
REMARK   71  A    between atoms: _183  and  _184
REMARK   72  A    between atoms: _187  and  _189
REMARK   73  A    between atoms: _189  and  _190
REMARK   74  A    between atoms: _189  and  _192
REMARK   75  A    between atoms: _192  and  _193
REMARK   76  A    between atoms: _193  and  _194
REMARK   77  A    between atoms: _197  and  _199
REMARK   78  A    between atoms: _199  and  _200
REMARK   79  A    between atoms: _199  and  _202
REMARK   80  A    between atoms: _202  and  _203
REMARK   81  A    between atoms: _203  and  _204
REMARK   82  A    between atoms: _204  and  _205
REMARK   83  A    between atoms: _205  and  _206
REMARK   84  A    between atoms: _210  and  _212
REMARK   85  A    between atoms: _212  and  _213
REMARK   86  A    between atoms: _212  and  _215
REMARK   87  A    between atoms: _215  and  _216
REMARK   88  A    between atoms: _219  and  _221
REMARK   89  A    between atoms: _221  and  _222
REMARK   90  A    between atoms: _221  and  _224
REMARK   91  A    between atoms: _224  and  _225
REMARK   92  A    between atoms: _225  and  _226
REMARK   93  A    between atoms: _226  and  _227
REMARK   94  A    between atoms: _236  and  _238
REMARK   95  A    between atoms: _238  and  _239
REMARK   96  A    between atoms: _238  and  _241
REMARK   97  A    between atoms: _241  and  _242
REMARK   98  A    between atoms: _247  and  _248
REMARK   99  A    between atoms: _250  and  _252
REMARK  100  A    between atoms: _252  and  _253
REMARK  101  A    between atoms: _252  and  _255
REMARK  102  A    between atoms: _255  and  _256
REMARK  103  A    between atoms: _259  and  _261
REMARK  104  A    between atoms: _261  and  _262
REMARK  105  A    between atoms: _261  and  _264
REMARK  106  A    between atoms: _264  and  _265
REMARK  107  A    between atoms: _269  and  _270
REMARK  108  A    between atoms: _275  and  _277
REMARK  109  A    between atoms: _277  and  _278
REMARK  110  A    between atoms: _277  and  _280
REMARK  111  A    between atoms: _280  and  _281
REMARK  112  A    between atoms: _287  and  _289
REMARK  113  A    between atoms: _289  and  _290
REMARK  114  A    between atoms: _289  and  _292
REMARK  115  A    between atoms: _292  and  _293
REMARK  116  A    between atoms: _293  and  _294
REMARK  117  A    between atoms: _294  and  _295
REMARK  118  A    between atoms: _304  and  _306
REMARK  119  A    between atoms: _306  and  _307
REMARK  120  A    between atoms: _306  and  _309
REMARK  121  A    between atoms: _309  and  _310
REMARK  122  A    between atoms: _316  and  _318
REMARK  123  A    between atoms: _318  and  _319
REMARK  124  A    between atoms: _318  and  _321
REMARK  125  A    between atoms: _321  and  _322
REMARK  126  A    between atoms: _327  and  _329
REMARK  127  A    between atoms: _329  and  _330
REMARK  128  A    between atoms: _329  and  _332
REMARK  129  A    between atoms: _332  and  _333
REMARK  130  A    between atoms: _336  and  _338
REMARK  131  A    between atoms: _338  and  _339
REMARK  132  A    between atoms: _338  and  _341
REMARK  133  A    between atoms: _341  and  _342
REMARK  134  A    between atoms: _345  and  _347
REMARK  135  A    between atoms: _347  and  _348
REMARK  136  A    between atoms: _350  and  _352
REMARK  137  A    between atoms: _352  and  _353
REMARK  138  A    between atoms: _352  and  _355
REMARK  139  A    between atoms: _355  and  _356
REMARK  140  A    between atoms: _356  and  _357
REMARK  141  A    between atoms: _360  and  _362
REMARK  142  A    between atoms: _362  and  _363
REMARK  143  A    between atoms: _362  and  _365
REMARK  144  A    between atoms: _365  and  _366
REMARK  145  A    between atoms: _366  and  _367
REMARK  146  A    between atoms: _367  and  _368
REMARK  147  A    between atoms: _368  and  _369
REMARK  148  A    between atoms: _373  and  _375
REMARK  149  A    between atoms: _375  and  _376
REMARK  150  A    between atoms: _375  and  _378
REMARK  151  A    between atoms: _378  and  _379
REMARK  152  A    between atoms: _390  and  _391
REMARK  153  A    between atoms: _396  and  _398
REMARK  154  A    between atoms: _398  and  _399
REMARK  155  A    between atoms: _401  and  _403
REMARK  156  A    between atoms: _403  and  _404
REMARK  157  A    between atoms: _403  and  _406
REMARK  158  A    between atoms: _406  and  _407
REMARK  159  A    between atoms: _410  and  _412
REMARK  160  A    between atoms: _412  and  _413
REMARK  161  A    between atoms: _412  and  _415
REMARK  162  A    between atoms: _415  and  _416
REMARK  163  A    between atoms: _418  and  _420
REMARK  164  A    between atoms: _420  and  _421
REMARK  165  A    between atoms: _420  and  _423
REMARK  166  A    between atoms: _423  and  _424
REMARK  167  A    between atoms: _429  and  _430
REMARK  168  A    between atoms: _432  and  _434
REMARK  169  A    between atoms: _434  and  _435
REMARK  170  A    between atoms: _434  and  _437
REMARK  171  A    between atoms: _437  and  _438
REMARK  172  A    between atoms: _444  and  _446
REMARK  173  A    between atoms: _446  and  _447
REMARK  174  A    between atoms: _446  and  _449
REMARK  175  A    between atoms: _449  and  _450
REMARK  176  A    between atoms: _450  and  _451
REMARK  177  A    between atoms: _454  and  _456
REMARK  178  A    between atoms: _456  and  _457
REMARK  179  A    between atoms: _456  and  _459
REMARK  180  A    between atoms: _459  and  _460
REMARK  181  A    between atoms: _460  and  _461
REMARK  182  A    between atoms: _463  and  _465
REMARK  183  A    between atoms: _465  and  _466
REMARK  184  A    between atoms: _465  and  _468
REMARK  185  A    between atoms: _468  and  _469
REMARK  186  A    between atoms: _479  and  _481
REMARK  187  A    between atoms: _481  and  _482
REMARK  188  A    between atoms: _481  and  _484
REMARK  189  A    between atoms: _484  and  _485
REMARK  190  A    between atoms: _495  and  _497
REMARK  191  A    between atoms: _497  and  _498
REMARK  192  A    between atoms: _497  and  _500
REMARK  193  A    between atoms: _500  and  _501
REMARK  194  A    between atoms: _506  and  _508
REMARK  195  A    between atoms: _508  and  _509
REMARK  196  A    between atoms: _508  and  _511
REMARK  197  A    between atoms: _511  and  _512
REMARK  198  A    between atoms: _515  and  _517
REMARK  199  A    between atoms: _517  and  _518
REMARK  200  A    between atoms: _521  and  _523
REMARK  201  A    between atoms: _523  and  _524
REMARK  202  A    between atoms: _523  and  _526
REMARK  203  A    between atoms: _526  and  _527
REMARK  204  A    between atoms: _532  and  _533
REMARK  205  A    between atoms: _535  and  _537
REMARK  206  A    between atoms: _537  and  _538
REMARK  207  A    between atoms: _537  and  _540
REMARK  208  A    between atoms: _540  and  _541
REMARK  209  A    between atoms: _551  and  _553
REMARK  210  A    between atoms: _553  and  _554
REMARK  211  A    between atoms: _553  and  _556
REMARK  212  A    between atoms: _556  and  _557
REMARK  213  A    between atoms: _562  and  _564
REMARK  214  A    between atoms: _564  and  _565
REMARK  215  A    between atoms: _567  and  _569
REMARK  216  A    between atoms: _569  and  _570
REMARK  217  A    between atoms: _569  and  _572
REMARK  218  A    between atoms: _575  and  _577
REMARK  219  A    between atoms: _577  and  _578
REMARK  220  A    between atoms: _577  and  _580
REMARK  221  A    between atoms: _580  and  _581
REMARK  222  A    between atoms: _587  and  _589
REMARK  223  A    between atoms: _589  and  _590
REMARK  224  A    between atoms: _592  and  _594
REMARK  225  A    between atoms: _594  and  _595
REMARK  226  A    between atoms: _597  and  _599
REMARK  227  A    between atoms: _599  and  _600
REMARK  228  A    between atoms: _599  and  _602
REMARK  229  A    between atoms: _602  and  _603
REMARK  230  A    between atoms: _606  and  _608
REMARK  231  A    between atoms: _608  and  _609
REMARK  232  A    between atoms: _608  and  _611
REMARK  233  A    between atoms: _611  and  _612
REMARK  234  A    between atoms: _615  and  _617
REMARK  235  A    between atoms: _617  and  _618
REMARK  236  A    between atoms: _617  and  _620
REMARK  237  A    between atoms: _620  and  _621
REMARK  238  A    between atoms: _624  and  _626
REMARK  239  A    between atoms: _626  and  _627
REMARK  240  A    between atoms: _626  and  _629
REMARK  241  A    between atoms: _629  and  _630
REMARK  242  A    between atoms: _630  and  _631
REMARK                            x       y       z     vdW  Elec       q    Type
REMARK                         _______ _______ _______ _____ _____    ______ ____
ROOT
ATOM      1  O   HOH     1      -4.261  49.226  98.791  0.00  0.00    +0.000 OA
ENDROOT
TORSDOF 0
REMARK  Name = ../refined-set-2016/1k1y/1k1y_pocket.pdb
REMARK  242 active torsions:
REMARK  status: ('A' for Active; 'I' for Inactive)
REMARK    1  A    between atoms: _1  and  _3
REMARK    2  A    between atoms: _3  and  _4
REMARK    3  A    between atoms: _3  and  _6
REMARK    4  A    between atoms: _6  and  _7
REMARK    5  A    between atoms: _12  and  _14
REMARK    6  A    between atoms: _14  and  _15
REMARK    7  A    between atoms: _14  and  _17
REMARK    8  A    between atoms: _17  and  _18
REMARK    9  A    between atoms: _23  and  _25
REMARK   10  A    between atoms: _25  and  _26
REMARK   11  A    between atoms: _25  and  _28
REMARK   12  A    between atoms: _28  and  _29
REMARK   13  A    between atoms: _34  and  _36
REMARK   14  A    between atoms: _36  and  _37
REMARK   15  A    between atoms: _36  and  _39
REMARK   16  A    between atoms: _39  and  _40
REMARK   17  A    between atoms: _40  and  _41
REMARK   18  A    between atoms: _47  and  _48
REMARK   19  A    between atoms: _53  and  _55
REMARK   20  A    between atoms: _55  and  _56
REMARK   21  A    between atoms: _55  and  _58
REMARK   22  A    between atoms: _58  and  _59
REMARK   23  A    between atoms: _64  and  _66
REMARK   24  A    between atoms: _66  and  _67
REMARK   25  A    between atoms: _66  and  _69
REMARK   26  A    between atoms: _69  and  _70
REMARK   27  A    between atoms: _75  and  _76
REMARK   28  A    between atoms: _78  and  _80
REMARK   29  A    between atoms: _80  and  _81
REMARK   30  A    between atoms: _80  and  _83
REMARK   31  A    between atoms: _83  and  _84
REMARK   32  A    between atoms: _89  and  _91
REMARK   33  A    between atoms: _91  and  _92
REMARK   34  A    between atoms: _91  and  _94
REMARK   35  A    between atoms: _94  and  _95
REMARK   36  A    between atoms: _95  and  _96
REMARK   37  A    between atoms: _99  and  _101
REMARK   38  A    between atoms: _101  and  _102
REMARK   39  A    between atoms: _101  and  _104
REMARK   40  A    between atoms: _104  and  _105
REMARK   41  A    between atoms: _115  and  _117
REMARK   42  A    between atoms: _117  and  _118
REMARK   43  A    between atoms: _117  and  _120
REMARK   44  A    between atoms: _120  and  _121
REMARK   45  A    between atoms: _124  and  _126
REMARK   46  A    between atoms: _126  and  _127
REMARK   47  A    between atoms: _126  and  _129
REMARK   48  A    between atoms: _129  and  _130
REMARK   49  A    between atoms: _133  and  _135
REMARK   50  A    between atoms: _135  and  _136
REMARK   51  A    between atoms: _135  and  _138
REMARK   52  A    between atoms: _138  and  _139
REMARK   53  A    between atoms: _139  and  _140
REMARK   54  A    between atoms: _143  and  _145
REMARK   55  A    between atoms: _145  and  _146
REMARK   56  A    between atoms: _145  and  _148
REMARK   57  A    between atoms: _148  and  _149
REMARK   58  A    between atoms: _149  and  _150
REMARK   59  A    between atoms: _150  and  _151
REMARK   60  A    between atoms: _160  and  _162
REMARK   61  A    between atoms: _162  and  _163
REMARK   62  A    between atoms: _162  and  _165
REMARK   63  A    between atoms: _165  and  _166
REMARK   64  A    between atoms: _169  and  _171
REMARK   65  A    between atoms: _171  and  _172
REMARK   66  A    between atoms: _171  and  _174
REMARK   67  A    between atoms: _174  and  _175
REMARK   68  A    between atoms: _178  and  _180
REMARK   69  A    between atoms: _180  and  _181
REMARK   70  A    between atoms: _180  and  _183
REMARK   71  A    between atoms: _183  and  _184
REMARK   72  A    between atoms: _187  and  _189
REMARK   73  A    between atoms: _189  and  _190
REMARK   74  A    between atoms: _189  and  _192
REMARK   75  A    between atoms: _192  and  _193
REMARK   76  A    between atoms: _193  and  _194
REMARK   77  A    between atoms: _197  and  _199
REMARK   78  A    between atoms: _199  and  _200
REMARK   79  A    between atoms: _199  and  _202
REMARK   80  A    between atoms: _202  and  _203
REMARK   81  A    between atoms: _203  and  _204
REMARK   82  A    between atoms: _204  and  _205
REMARK   83  A    between atoms: _205  and  _206
REMARK   84  A    between atoms: _210  and  _212
REMARK   85  A    between atoms: _212  and  _213
REMARK   86  A    between atoms: _212  and  _215
REMARK   87  A    between atoms: _215  and  _216
REMARK   88  A    between atoms: _219  and  _221
REMARK   89  A    between atoms: _221  and  _222
REMARK   90  A    between atoms: _221  and  _224
REMARK   91  A    between atoms: _224  and  _225
REMARK   92  A    between atoms: _225  and  _226
REMARK   93  A    between atoms: _226  and  _227
REMARK   94  A    between atoms: _236  and  _238
REMARK   95  A    between atoms: _238  and  _239
REMARK   96  A    between atoms: _238  and  _241
REMARK   97  A    between atoms: _241  and  _242
REMARK   98  A    between atoms: _247  and  _248
REMARK   99  A    between atoms: _250  and  _252
REMARK  100  A    between atoms: _252  and  _253
REMARK  101  A    between atoms: _252  and  _255
REMARK  102  A    between atoms: _255  and  _256
REMARK  103  A    between atoms: _259  and  _261
REMARK  104  A    between atoms: _261  and  _262
REMARK  105  A    between atoms: _261  and  _264
REMARK  106  A    between atoms: _264  and  _265
REMARK  107  A    between atoms: _269  and  _270
REMARK  108  A    between atoms: _275  and  _277
REMARK  109  A    between atoms: _277  and  _278
REMARK  110  A    between atoms: _277  and  _280
REMARK  111  A    between atoms: _280  and  _281
REMARK  112  A    between atoms: _287  and  _289
REMARK  113  A    between atoms: _289  and  _290
REMARK  114  A    between atoms: _289  and  _292
REMARK  115  A    between atoms: _292  and  _293
REMARK  116  A    between atoms: _293  and  _294
REMARK  117  A    between atoms: _294  and  _295
REMARK  118  A    between atoms: _304  and  _306
REMARK  119  A    between atoms: _306  and  _307
REMARK  120  A    between atoms: _306  and  _309
REMARK  121  A    between atoms: _309  and  _310
REMARK  122  A    between atoms: _316  and  _318
REMARK  123  A    between atoms: _318  and  _319
REMARK  124  A    between atoms: _318  and  _321
REMARK  125  A    between atoms: _321  and  _322
REMARK  126  A    between atoms: _327  and  _329
REMARK  127  A    between atoms: _329  and  _330
REMARK  128  A    between atoms: _329  and  _332
REMARK  129  A    between atoms: _332  and  _333
REMARK  130  A    between atoms: _336  and  _338
REMARK  131  A    between atoms: _338  and  _339
REMARK  132  A    between atoms: _338  and  _341
REMARK  133  A    between atoms: _341  and  _342
REMARK  134  A    between atoms: _345  and  _347
REMARK  135  A    between atoms: _347  and  _348
REMARK  136  A    between atoms: _350  and  _352
REMARK  137  A    between atoms: _352  and  _353
REMARK  138  A    between atoms: _352  and  _355
REMARK  139  A    between atoms: _355  and  _356
REMARK  140  A    between atoms: _356  and  _357
REMARK  141  A    between atoms: _360  and  _362
REMARK  142  A    between atoms: _362  and  _363
REMARK  143  A    between atoms: _362  and  _365
REMARK  144  A    between atoms: _365  and  _366
REMARK  145  A    between atoms: _366  and  _367
REMARK  146  A    between atoms: _367  and  _368
REMARK  147  A    between atoms: _368  and  _369
REMARK  148  A    between atoms: _373  and  _375
REMARK  149  A    between atoms: _375  and  _376
REMARK  150  A    between atoms: _375  and  _378
REMARK  151  A    between atoms: _378  and  _379
REMARK  152  A    between atoms: _390  and  _391
REMARK  153  A    between atoms: _396  and  _398
REMARK  154  A    between atoms: _398  and  _399
REMARK  155  A    between atoms: _401  and  _403
REMARK  156  A    between atoms: _403  and  _404
REMARK  157  A    between atoms: _403  and  _406
REMARK  158  A    between atoms: _406  and  _407
REMARK  159  A    between atoms: _410  and  _412
REMARK  160  A    between atoms: _412  and  _413
REMARK  161  A    between atoms: _412  and  _415
REMARK  162  A    between atoms: _415  and  _416
REMARK  163  A    between atoms: _418  and  _420
REMARK  164  A    between atoms: _420  and  _421
REMARK  165  A    between atoms: _420  and  _423
REMARK  166  A    between atoms: _423  and  _424
REMARK  167  A    between atoms: _429  and  _430
REMARK  168  A    between atoms: _432  and  _434
REMARK  169  A    between atoms: _434  and  _435
REMARK  170  A    between atoms: _434  and  _437
REMARK  171  A    between atoms: _437  and  _438
REMARK  172  A    between atoms: _444  and  _446
REMARK  173  A    between atoms: _446  and  _447
REMARK  174  A    between atoms: _446  and  _449
REMARK  175  A    between atoms: _449  and  _450
REMARK  176  A    between atoms: _450  and  _451
REMARK  177  A    between atoms: _454  and  _456
REMARK  178  A    between atoms: _456  and  _457
REMARK  179  A    between atoms: _456  and  _459
REMARK  180  A    between atoms: _459  and  _460
REMARK  181  A    between atoms: _460  and  _461
REMARK  182  A    between atoms: _463  and  _465
REMARK  183  A    between atoms: _465  and  _466
REMARK  184  A    between atoms: _465  and  _468
REMARK  185  A    between atoms: _468  and  _469
REMARK  186  A    between atoms: _479  and  _481
REMARK  187  A    between atoms: _481  and  _482
REMARK  188  A    between atoms: _481  and  _484
REMARK  189  A    between atoms: _484  and  _485
REMARK  190  A    between atoms: _495  and  _497
REMARK  191  A    between atoms: _497  and  _498
REMARK  192  A    between atoms: _497  and  _500
REMARK  193  A    between atoms: _500  and  _501
REMARK  194  A    between atoms: _506  and  _508
REMARK  195  A    between atoms: _508  and  _509
REMARK  196  A    between atoms: _508  and  _511
REMARK  197  A    between atoms: _511  and  _512
REMARK  198  A    between atoms: _515  and  _517
REMARK  199  A    between atoms: _517  and  _518
REMARK  200  A    between atoms: _521  and  _523
REMARK  201  A    between atoms: _523  and  _524
REMARK  202  A    between atoms: _523  and  _526
REMARK  203  A    between atoms: _526  and  _527
REMARK  204  A    between atoms: _532  and  _533
REMARK  205  A    between atoms: _535  and  _537
REMARK  206  A    between atoms: _537  and  _538
REMARK  207  A    between atoms: _537  and  _540
REMARK  208  A    between atoms: _540  and  _541
REMARK  209  A    between atoms: _551  and  _553
REMARK  210  A    between atoms: _553  and  _554
REMARK  211  A    between atoms: _553  and  _556
REMARK  212  A    between atoms: _556  and  _557
REMARK  213  A    between atoms: _562  and  _564
REMARK  214  A    between atoms: _564  and  _565
REMARK  215  A    between atoms: _567  and  _569
REMARK  216  A    between atoms: _569  and  _570
REMARK  217  A    between atoms: _569  and  _572
REMARK  218  A    between atoms: _575  and  _577
REMARK  219  A    between atoms: _577  and  _578
REMARK  220  A    between atoms: _577  and  _580
REMARK  221  A    between atoms: _580  and  _581
REMARK  222  A    between atoms: _587  and  _589
REMARK  223  A    between atoms: _589  and  _590
REMARK  224  A    between atoms: _592  and  _594
REMARK  225  A    between atoms: _594  and  _595
REMARK  226  A    between atoms: _597  and  _599
REMARK  227  A    between atoms: _599  and  _600
REMARK  228  A    between atoms: _599  and  _602
REMARK  229  A    between atoms: _602  and  _603
REMARK  230  A    between atoms: _606  and  _608
REMARK  231  A    between atoms: _608  and  _609
REMARK  232  A    between atoms: _608  and  _611
REMARK  233  A    between atoms: _611  and  _612
REMARK  234  A    between atoms: _615  and  _617
REMARK  235  A    between atoms: _617  and  _618
REMARK  236  A    between atoms: _617  and  _620
REMARK  237  A    between atoms: _620  and  _621
REMARK  238  A    between atoms: _624  and  _626
REMARK  239  A    between atoms: _626  and  _627
REMARK  240  A    between atoms: _626  and  _629
REMARK  241  A    between atoms: _629  and  _630
REMARK  242  A    between atoms: _630  and  _631
REMARK                            x       y       z     vdW  Elec       q    Type
REMARK                         _______ _______ _______ _____ _____    ______ ____
ROOT
ATOM      1  O   HOH     1      -5.018  60.291  97.924  0.00  0.00    +0.000 OA
ENDROOT
TORSDOF 0
REMARK  Name = ../refined-set-2016/1k1y/1k1y_pocket.pdb
REMARK  242 active torsions:
REMARK  status: ('A' for Active; 'I' for Inactive)
REMARK    1  A    between atoms: _1  and  _3
REMARK    2  A    between atoms: _3  and  _4
REMARK    3  A    between atoms: _3  and  _6
REMARK    4  A    between atoms: _6  and  _7
REMARK    5  A    between atoms: _12  and  _14
REMARK    6  A    between atoms: _14  and  _15
REMARK    7  A    between atoms: _14  and  _17
REMARK    8  A    between atoms: _17  and  _18
REMARK    9  A    between atoms: _23  and  _25
REMARK   10  A    between atoms: _25  and  _26
REMARK   11  A    between atoms: _25  and  _28
REMARK   12  A    between atoms: _28  and  _29
REMARK   13  A    between atoms: _34  and  _36
REMARK   14  A    between atoms: _36  and  _37
REMARK   15  A    between atoms: _36  and  _39
REMARK   16  A    between atoms: _39  and  _40
REMARK   17  A    between atoms: _40  and  _41
REMARK   18  A    between atoms: _47  and  _48
REMARK   19  A    between atoms: _53  and  _55
REMARK   20  A    between atoms: _55  and  _56
REMARK   21  A    between atoms: _55  and  _58
REMARK   22  A    between atoms: _58  and  _59
REMARK   23  A    between atoms: _64  and  _66
REMARK   24  A    between atoms: _66  and  _67
REMARK   25  A    between atoms: _66  and  _69
REMARK   26  A    between atoms: _69  and  _70
REMARK   27  A    between atoms: _75  and  _76
REMARK   28  A    between atoms: _78  and  _80
REMARK   29  A    between atoms: _80  and  _81
REMARK   30  A    between atoms: _80  and  _83
REMARK   31  A    between atoms: _83  and  _84
REMARK   32  A    between atoms: _89  and  _91
REMARK   33  A    between atoms: _91  and  _92
REMARK   34  A    between atoms: _91  and  _94
REMARK   35  A    between atoms: _94  and  _95
REMARK   36  A    between atoms: _95  and  _96
REMARK   37  A    between atoms: _99  and  _101
REMARK   38  A    between atoms: _101  and  _102
REMARK   39  A    between atoms: _101  and  _104
REMARK   40  A    between atoms: _104  and  _105
REMARK   41  A    between atoms: _115  and  _117
REMARK   42  A    between atoms: _117  and  _118
REMARK   43  A    between atoms: _117  and  _120
REMARK   44  A    between atoms: _120  and  _121
REMARK   45  A    between atoms: _124  and  _126
REMARK   46  A    between atoms: _126  and  _127
REMARK   47  A    between atoms: _126  and  _129
REMARK   48  A    between atoms: _129  and  _130
REMARK   49  A    between atoms: _133  and  _135
REMARK   50  A    between atoms: _135  and  _136
REMARK   51  A    between atoms: _135  and  _138
REMARK   52  A    between atoms: _138  and  _139
REMARK   53  A    between atoms: _139  and  _140
REMARK   54  A    between atoms: _143  and  _145
REMARK   55  A    between atoms: _145  and  _146
REMARK   56  A    between atoms: _145  and  _148
REMARK   57  A    between atoms: _148  and  _149
REMARK   58  A    between atoms: _149  and  _150
REMARK   59  A    between atoms: _150  and  _151
REMARK   60  A    between atoms: _160  and  _162
REMARK   61  A    between atoms: _162  and  _163
REMARK   62  A    between atoms: _162  and  _165
REMARK   63  A    between atoms: _165  and  _166
REMARK   64  A    between atoms: _169  and  _171
REMARK   65  A    between atoms: _171  and  _172
REMARK   66  A    between atoms: _171  and  _174
REMARK   67  A    between atoms: _174  and  _175
REMARK   68  A    between atoms: _178  and  _180
REMARK   69  A    between atoms: _180  and  _181
REMARK   70  A    between atoms: _180  and  _183
REMARK   71  A    between atoms: _183  and  _184
REMARK   72  A    between atoms: _187  and  _189
REMARK   73  A    between atoms: _189  and  _190
REMARK   74  A    between atoms: _189  and  _192
REMARK   75  A    between atoms: _192  and  _193
REMARK   76  A    between atoms: _193  and  _194
REMARK   77  A    between atoms: _197  and  _199
REMARK   78  A    between atoms: _199  and  _200
REMARK   79  A    between atoms: _199  and  _202
REMARK   80  A    between atoms: _202  and  _203
REMARK   81  A    between atoms: _203  and  _204
REMARK   82  A    between atoms: _204  and  _205
REMARK   83  A    between atoms: _205  and  _206
REMARK   84  A    between atoms: _210  and  _212
REMARK   85  A    between atoms: _212  and  _213
REMARK   86  A    between atoms: _212  and  _215
REMARK   87  A    between atoms: _215  and  _216
REMARK   88  A    between atoms: _219  and  _221
REMARK   89  A    between atoms: _221  and  _222
REMARK   90  A    between atoms: _221  and  _224
REMARK   91  A    between atoms: _224  and  _225
REMARK   92  A    between atoms: _225  and  _226
REMARK   93  A    between atoms: _226  and  _227
REMARK   94  A    between atoms: _236  and  _238
REMARK   95  A    between atoms: _238  and  _239
REMARK   96  A    between atoms: _238  and  _241
REMARK   97  A    between atoms: _241  and  _242
REMARK   98  A    between atoms: _247  and  _248
REMARK   99  A    between atoms: _250  and  _252
REMARK  100  A    between atoms: _252  and  _253
REMARK  101  A    between atoms: _252  and  _255
REMARK  102  A    between atoms: _255  and  _256
REMARK  103  A    between atoms: _259  and  _261
REMARK  104  A    between atoms: _261  and  _262
REMARK  105  A    between atoms: _261  and  _264
REMARK  106  A    between atoms: _264  and  _265
REMARK  107  A    between atoms: _269  and  _270
REMARK  108  A    between atoms: _275  and  _277
REMARK  109  A    between atoms: _277  and  _278
REMARK  110  A    between atoms: _277  and  _280
REMARK  111  A    between atoms: _280  and  _281
REMARK  112  A    between atoms: _287  and  _289
REMARK  113  A    between atoms: _289  and  _290
REMARK  114  A    between atoms: _289  and  _292
REMARK  115  A    between atoms: _292  and  _293
REMARK  116  A    between atoms: _293  and  _294
REMARK  117  A    between atoms: _294  and  _295
REMARK  118  A    between atoms: _304  and  _306
REMARK  119  A    between atoms: _306  and  _307
REMARK  120  A    between atoms: _306  and  _309
REMARK  121  A    between atoms: _309  and  _310
REMARK  122  A    between atoms: _316  and  _318
REMARK  123  A    between atoms: _318  and  _319
REMARK  124  A    between atoms: _318  and  _321
REMARK  125  A    between atoms: _321  and  _322
REMARK  126  A    between atoms: _327  and  _329
REMARK  127  A    between atoms: _329  and  _330
REMARK  128  A    between atoms: _329  and  _332
REMARK  129  A    between atoms: _332  and  _333
REMARK  130  A    between atoms: _336  and  _338
REMARK  131  A    between atoms: _338  and  _339
REMARK  132  A    between atoms: _338  and  _341
REMARK  133  A    between atoms: _341  and  _342
REMARK  134  A    between atoms: _345  and  _347
REMARK  135  A    between atoms: _347  and  _348
REMARK  136  A    between atoms: _350  and  _352
REMARK  137  A    between atoms: _352  and  _353
REMARK  138  A    between atoms: _352  and  _355
REMARK  139  A    between atoms: _355  and  _356
REMARK  140  A    between atoms: _356  and  _357
REMARK  141  A    between atoms: _360  and  _362
REMARK  142  A    between atoms: _362  and  _363
REMARK  143  A    between atoms: _362  and  _365
REMARK  144  A    between atoms: _365  and  _366
REMARK  145  A    between atoms: _366  and  _367
REMARK  146  A    between atoms: _367  and  _368
REMARK  147  A    between atoms: _368  and  _369
REMARK  148  A    between atoms: _373  and  _375
REMARK  149  A    between atoms: _375  and  _376
REMARK  150  A    between atoms: _375  and  _378
REMARK  151  A    between atoms: _378  and  _379
REMARK  152  A    between atoms: _390  and  _391
REMARK  153  A    between atoms: _396  and  _398
REMARK  154  A    between atoms: _398  and  _399
REMARK  155  A    between atoms: _401  and  _403
REMARK  156  A    between atoms: _403  and  _404
REMARK  157  A    between atoms: _403  and  _406
REMARK  158  A    between atoms: _406  and  _407
REMARK  159  A    between atoms: _410  and  _412
REMARK  160  A    between atoms: _412  and  _413
REMARK  161  A    between atoms: _412  and  _415
REMARK  162  A    between atoms: _415  and  _416
REMARK  163  A    between atoms: _418  and  _420
REMARK  164  A    between atoms: _420  and  _421
REMARK  165  A    between atoms: _420  and  _423
REMARK  166  A    between atoms: _423  and  _424
REMARK  167  A    between atoms: _429  and  _430
REMARK  168  A    between atoms: _432  and  _434
REMARK  169  A    between atoms: _434  and  _435
REMARK  170  A    between atoms: _434  and  _437
REMARK  171  A    between atoms: _437  and  _438
REMARK  172  A    between atoms: _444  and  _446
REMARK  173  A    between atoms: _446  and  _447
REMARK  174  A    between atoms: _446  and  _449
REMARK  175  A    between atoms: _449  and  _450
REMARK  176  A    between atoms: _450  and  _451
REMARK  177  A    between atoms: _454  and  _456
REMARK  178  A    between atoms: _456  and  _457
REMARK  179  A    between atoms: _456  and  _459
REMARK  180  A    between atoms: _459  and  _460
REMARK  181  A    between atoms: _460  and  _461
REMARK  182  A    between atoms: _463  and  _465
REMARK  183  A    between atoms: _465  and  _466
REMARK  184  A    between atoms: _465  and  _468
REMARK  185  A    between atoms: _468  and  _469
REMARK  186  A    between atoms: _479  and  _481
REMARK  187  A    between atoms: _481  and  _482
REMARK  188  A    between atoms: _481  and  _484
REMARK  189  A    between atoms: _484  and  _485
REMARK  190  A    between atoms: _495  and  _497
REMARK  191  A    between atoms: _497  and  _498
REMARK  192  A    between atoms: _497  and  _500
REMARK  193  A    between atoms: _500  and  _501
REMARK  194  A    between atoms: _506  and  _508
REMARK  195  A    between atoms: _508  and  _509
REMARK  196  A    between atoms: _508  and  _511
REMARK  197  A    between atoms: _511  and  _512
REMARK  198  A    between atoms: _515  and  _517
REMARK  199  A    between atoms: _517  and  _518
REMARK  200  A    between atoms: _521  and  _523
REMARK  201  A    between atoms: _523  and  _524
REMARK  202  A    between atoms: _523  and  _526
REMARK  203  A    between atoms: _526  and  _527
REMARK  204  A    between atoms: _532  and  _533
REMARK  205  A    between atoms: _535  and  _537
REMARK  206  A    between atoms: _537  and  _538
REMARK  207  A    between atoms: _537  and  _540
REMARK  208  A    between atoms: _540  and  _541
REMARK  209  A    between atoms: _551  and  _553
REMARK  210  A    between atoms: _553  and  _554
REMARK  211  A    between atoms: _553  and  _556
REMARK  212  A    between atoms: _556  and  _557
REMARK  213  A    between atoms: _562  and  _564
REMARK  214  A    between atoms: _564  and  _565
REMARK  215  A    between atoms: _567  and  _569
REMARK  216  A    between atoms: _569  and  _570
REMARK  217  A    between atoms: _569  and  _572
REMARK  218  A    between atoms: _575  and  _577
REMARK  219  A    between atoms: _577  and  _578
REMARK  220  A    between atoms: _577  and  _580
REMARK  221  A    between atoms: _580  and  _581
REMARK  222  A    between atoms: _587  and  _589
REMARK  223  A    between atoms: _589  and  _590
REMARK  224  A    between atoms: _592  and  _594
REMARK  225  A    between atoms: _594  and  _595
REMARK  226  A    between atoms: _597  and  _599
REMARK  227  A    between atoms: _599  and  _600
REMARK  228  A    between atoms: _599  and  _602
REMARK  229  A    between atoms: _602  and  _603
REMARK  230  A    between atoms: _606  and  _608
REMARK  231  A    between atoms: _608  and  _609
REMARK  232  A    between atoms: _608  and  _611
REMARK  233  A    between atoms: _611  and  _612
REMARK  234  A    between atoms: _615  and  _617
REMARK  235  A    between atoms: _617  and  _618
REMARK  236  A    between atoms: _617  and  _620
REMARK  237  A    between atoms: _620  and  _621
REMARK  238  A    between atoms: _624  and  _626
REMARK  239  A    between atoms: _626  and  _627
REMARK  240  A    between atoms: _626  and  _629
REMARK  241  A    between atoms: _629  and  _630
REMARK  242  A    between atoms: _630  and  _631
REMARK                            x       y       z     vdW  Elec       q    Type
REMARK                         _______ _______ _______ _____ _____    ______ ____
ROOT
ATOM      1  O   HOH     1      -3.097  51.586 101.680  0.00  0.00    +0.000 OA
ENDROOT
TORSDOF 0
REMARK  Name = ../refined-set-2016/1k1y/1k1y_pocket.pdb
REMARK  242 active torsions:
REMARK  status: ('A' for Active; 'I' for Inactive)
REMARK    1  A    between atoms: _1  and  _3
REMARK    2  A    between atoms: _3  and  _4
REMARK    3  A    between atoms: _3  and  _6
REMARK    4  A    between atoms: _6  and  _7
REMARK    5  A    between atoms: _12  and  _14
REMARK    6  A    between atoms: _14  and  _15
REMARK    7  A    between atoms: _14  and  _17
REMARK    8  A    between atoms: _17  and  _18
REMARK    9  A    between atoms: _23  and  _25
REMARK   10  A    between atoms: _25  and  _26
REMARK   11  A    between atoms: _25  and  _28
REMARK   12  A    between atoms: _28  and  _29
REMARK   13  A    between atoms: _34  and  _36
REMARK   14  A    between atoms: _36  and  _37
REMARK   15  A    between atoms: _36  and  _39
REMARK   16  A    between atoms: _39  and  _40
REMARK   17  A    between atoms: _40  and  _41
REMARK   18  A    between atoms: _47  and  _48
REMARK   19  A    between atoms: _53  and  _55
REMARK   20  A    between atoms: _55  and  _56
REMARK   21  A    between atoms: _55  and  _58
REMARK   22  A    between atoms: _58  and  _59
REMARK   23  A    between atoms: _64  and  _66
REMARK   24  A    between atoms: _66  and  _67
REMARK   25  A    between atoms: _66  and  _69
REMARK   26  A    between atoms: _69  and  _70
REMARK   27  A    between atoms: _75  and  _76
REMARK   28  A    between atoms: _78  and  _80
REMARK   29  A    between atoms: _80  and  _81
REMARK   30  A    between atoms: _80  and  _83
REMARK   31  A    between atoms: _83  and  _84
REMARK   32  A    between atoms: _89  and  _91
REMARK   33  A    between atoms: _91  and  _92
REMARK   34  A    between atoms: _91  and  _94
REMARK   35  A    between atoms: _94  and  _95
REMARK   36  A    between atoms: _95  and  _96
REMARK   37  A    between atoms: _99  and  _101
REMARK   38  A    between atoms: _101  and  _102
REMARK   39  A    between atoms: _101  and  _104
REMARK   40  A    between atoms: _104  and  _105
REMARK   41  A    between atoms: _115  and  _117
REMARK   42  A    between atoms: _117  and  _118
REMARK   43  A    between atoms: _117  and  _120
REMARK   44  A    between atoms: _120  and  _121
REMARK   45  A    between atoms: _124  and  _126
REMARK   46  A    between atoms: _126  and  _127
REMARK   47  A    between atoms: _126  and  _129
REMARK   48  A    between atoms: _129  and  _130
REMARK   49  A    between atoms: _133  and  _135
REMARK   50  A    between atoms: _135  and  _136
REMARK   51  A    between atoms: _135  and  _138
REMARK   52  A    between atoms: _138  and  _139
REMARK   53  A    between atoms: _139  and  _140
REMARK   54  A    between atoms: _143  and  _145
REMARK   55  A    between atoms: _145  and  _146
REMARK   56  A    between atoms: _145  and  _148
REMARK   57  A    between atoms: _148  and  _149
REMARK   58  A    between atoms: _149  and  _150
REMARK   59  A    between atoms: _150  and  _151
REMARK   60  A    between atoms: _160  and  _162
REMARK   61  A    between atoms: _162  and  _163
REMARK   62  A    between atoms: _162  and  _165
REMARK   63  A    between atoms: _165  and  _166
REMARK   64  A    between atoms: _169  and  _171
REMARK   65  A    between atoms: _171  and  _172
REMARK   66  A    between atoms: _171  and  _174
REMARK   67  A    between atoms: _174  and  _175
REMARK   68  A    between atoms: _178  and  _180
REMARK   69  A    between atoms: _180  and  _181
REMARK   70  A    between atoms: _180  and  _183
REMARK   71  A    between atoms: _183  and  _184
REMARK   72  A    between atoms: _187  and  _189
REMARK   73  A    between atoms: _189  and  _190
REMARK   74  A    between atoms: _189  and  _192
REMARK   75  A    between atoms: _192  and  _193
REMARK   76  A    between atoms: _193  and  _194
REMARK   77  A    between atoms: _197  and  _199
REMARK   78  A    between atoms: _199  and  _200
REMARK   79  A    between atoms: _199  and  _202
REMARK   80  A    between atoms: _202  and  _203
REMARK   81  A    between atoms: _203  and  _204
REMARK   82  A    between atoms: _204  and  _205
REMARK   83  A    between atoms: _205  and  _206
REMARK   84  A    between atoms: _210  and  _212
REMARK   85  A    between atoms: _212  and  _213
REMARK   86  A    between atoms: _212  and  _215
REMARK   87  A    between atoms: _215  and  _216
REMARK   88  A    between atoms: _219  and  _221
REMARK   89  A    between atoms: _221  and  _222
REMARK   90  A    between atoms: _221  and  _224
REMARK   91  A    between atoms: _224  and  _225
REMARK   92  A    between atoms: _225  and  _226
REMARK   93  A    between atoms: _226  and  _227
REMARK   94  A    between atoms: _236  and  _238
REMARK   95  A    between atoms: _238  and  _239
REMARK   96  A    between atoms: _238  and  _241
REMARK   97  A    between atoms: _241  and  _242
REMARK   98  A    between atoms: _247  and  _248
REMARK   99  A    between atoms: _250  and  _252
REMARK  100  A    between atoms: _252  and  _253
REMARK  101  A    between atoms: _252  and  _255
REMARK  102  A    between atoms: _255  and  _256
REMARK  103  A    between atoms: _259  and  _261
REMARK  104  A    between atoms: _261  and  _262
REMARK  105  A    between atoms: _261  and  _264
REMARK  106  A    between atoms: _264  and  _265
REMARK  107  A    between atoms: _269  and  _270
REMARK  108  A    between atoms: _275  and  _277
REMARK  109  A    between atoms: _277  and  _278
REMARK  110  A    between atoms: _277  and  _280
REMARK  111  A    between atoms: _280  and  _281
REMARK  112  A    between atoms: _287  and  _289
REMARK  113  A    between atoms: _289  and  _290
REMARK  114  A    between atoms: _289  and  _292
REMARK  115  A    between atoms: _292  and  _293
REMARK  116  A    between atoms: _293  and  _294
REMARK  117  A    between atoms: _294  and  _295
REMARK  118  A    between atoms: _304  and  _306
REMARK  119  A    between atoms: _306  and  _307
REMARK  120  A    between atoms: _306  and  _309
REMARK  121  A    between atoms: _309  and  _310
REMARK  122  A    between atoms: _316  and  _318
REMARK  123  A    between atoms: _318  and  _319
REMARK  124  A    between atoms: _318  and  _321
REMARK  125  A    between atoms: _321  and  _322
REMARK  126  A    between atoms: _327  and  _329
REMARK  127  A    between atoms: _329  and  _330
REMARK  128  A    between atoms: _329  and  _332
REMARK  129  A    between atoms: _332  and  _333
REMARK  130  A    between atoms: _336  and  _338
REMARK  131  A    between atoms: _338  and  _339
REMARK  132  A    between atoms: _338  and  _341
REMARK  133  A    between atoms: _341  and  _342
REMARK  134  A    between atoms: _345  and  _347
REMARK  135  A    between atoms: _347  and  _348
REMARK  136  A    between atoms: _350  and  _352
REMARK  137  A    between atoms: _352  and  _353
REMARK  138  A    between atoms: _352  and  _355
REMARK  139  A    between atoms: _355  and  _356
REMARK  140  A    between atoms: _356  and  _357
REMARK  141  A    between atoms: _360  and  _362
REMARK  142  A    between atoms: _362  and  _363
REMARK  143  A    between atoms: _362  and  _365
REMARK  144  A    between atoms: _365  and  _366
REMARK  145  A    between atoms: _366  and  _367
REMARK  146  A    between atoms: _367  and  _368
REMARK  147  A    between atoms: _368  and  _369
REMARK  148  A    between atoms: _373  and  _375
REMARK  149  A    between atoms: _375  and  _376
REMARK  150  A    between atoms: _375  and  _378
REMARK  151  A    between atoms: _378  and  _379
REMARK  152  A    between atoms: _390  and  _391
REMARK  153  A    between atoms: _396  and  _398
REMARK  154  A    between atoms: _398  and  _399
REMARK  155  A    between atoms: _401  and  _403
REMARK  156  A    between atoms: _403  and  _404
REMARK  157  A    between atoms: _403  and  _406
REMARK  158  A    between atoms: _406  and  _407
REMARK  159  A    between atoms: _410  and  _412
REMARK  160  A    between atoms: _412  and  _413
REMARK  161  A    between atoms: _412  and  _415
REMARK  162  A    between atoms: _415  and  _416
REMARK  163  A    between atoms: _418  and  _420
REMARK  164  A    between atoms: _420  and  _421
REMARK  165  A    between atoms: _420  and  _423
REMARK  166  A    between atoms: _423  and  _424
REMARK  167  A    between atoms: _429  and  _430
REMARK  168  A    between atoms: _432  and  _434
REMARK  169  A    between atoms: _434  and  _435
REMARK  170  A    between atoms: _434  and  _437
REMARK  171  A    between atoms: _437  and  _438
REMARK  172  A    between atoms: _444  and  _446
REMARK  173  A    between atoms: _446  and  _447
REMARK  174  A    between atoms: _446  and  _449
REMARK  175  A    between atoms: _449  and  _450
REMARK  176  A    between atoms: _450  and  _451
REMARK  177  A    between atoms: _454  and  _456
REMARK  178  A    between atoms: _456  and  _457
REMARK  179  A    between atoms: _456  and  _459
REMARK  180  A    between atoms: _459  and  _460
REMARK  181  A    between atoms: _460  and  _461
REMARK  182  A    between atoms: _463  and  _465
REMARK  183  A    between atoms: _465  and  _466
REMARK  184  A    between atoms: _465  and  _468
REMARK  185  A    between atoms: _468  and  _469
REMARK  186  A    between atoms: _479  and  _481
REMARK  187  A    between atoms: _481  and  _482
REMARK  188  A    between atoms: _481  and  _484
REMARK  189  A    between atoms: _484  and  _485
REMARK  190  A    between atoms: _495  and  _497
REMARK  191  A    between atoms: _497  and  _498
REMARK  192  A    between atoms: _497  and  _500
REMARK  193  A    between atoms: _500  and  _501
REMARK  194  A    between atoms: _506  and  _508
REMARK  195  A    between atoms: _508  and  _509
REMARK  196  A    between atoms: _508  and  _511
REMARK  197  A    between atoms: _511  and  _512
REMARK  198  A    between atoms: _515  and  _517
REMARK  199  A    between atoms: _517  and  _518
REMARK  200  A    between atoms: _521  and  _523
REMARK  201  A    between atoms: _523  and  _524
REMARK  202  A    between atoms: _523  and  _526
REMARK  203  A    between atoms: _526  and  _527
REMARK  204  A    between atoms: _532  and  _533
REMARK  205  A    between atoms: _535  and  _537
REMARK  206  A    between atoms: _537  and  _538
REMARK  207  A    between atoms: _537  and  _540
REMARK  208  A    between atoms: _540  and  _541
REMARK  209  A    between atoms: _551  and  _553
REMARK  210  A    between atoms: _553  and  _554
REMARK  211  A    between atoms: _553  and  _556
REMARK  212  A    between atoms: _556  and  _557
REMARK  213  A    between atoms: _562  and  _564
REMARK  214  A    between atoms: _564  and  _565
REMARK  215  A    between atoms: _567  and  _569
REMARK  216  A    between atoms: _569  and  _570
REMARK  217  A    between atoms: _569  and  _572
REMARK  218  A    between atoms: _575  and  _577
REMARK  219  A    between atoms: _577  and  _578
REMARK  220  A    between atoms: _577  and  _580
REMARK  221  A    between atoms: _580  and  _581
REMARK  222  A    between atoms: _587  and  _589
REMARK  223  A    between atoms: _589  and  _590
REMARK  224  A    between atoms: _592  and  _594
REMARK  225  A    between atoms: _594  and  _595
REMARK  226  A    between atoms: _597  and  _599
REMARK  227  A    between atoms: _599  and  _600
REMARK  228  A    between atoms: _599  and  _602
REMARK  229  A    between atoms: _602  and  _603
REMARK  230  A    between atoms: _606  and  _608
REMARK  231  A    between atoms: _608  and  _609
REMARK  232  A    between atoms: _608  and  _611
REMARK  233  A    between atoms: _611  and  _612
REMARK  234  A    between atoms: _615  and  _617
REMARK  235  A    between atoms: _617  and  _618
REMARK  236  A    between atoms: _617  and  _620
REMARK  237  A    between atoms: _620  and  _621
REMARK  238  A    between atoms: _624  and  _626
REMARK  239  A    between atoms: _626  and  _627
REMARK  240  A    between atoms: _626  and  _629
REMARK  241  A    between atoms: _629  and  _630
REMARK  242  A    between atoms: _630  and  _631
REMARK                            x       y       z     vdW  Elec       q    Type
REMARK                         _______ _______ _______ _____ _____    ______ ____
ROOT
ATOM      1  O   HOH     1       9.216  55.499  97.785  0.00  0.00    +0.000 OA
ENDROOT
TORSDOF 0
REMARK  Name = ../refined-set-2016/1k1y/1k1y_pocket.pdb
REMARK  242 active torsions:
REMARK  status: ('A' for Active; 'I' for Inactive)
REMARK    1  A    between atoms: _1  and  _3
REMARK    2  A    between atoms: _3  and  _4
REMARK    3  A    between atoms: _3  and  _6
REMARK    4  A    between atoms: _6  and  _7
REMARK    5  A    between atoms: _12  and  _14
REMARK    6  A    between atoms: _14  and  _15
REMARK    7  A    between atoms: _14  and  _17
REMARK    8  A    between atoms: _17  and  _18
REMARK    9  A    between atoms: _23  and  _25
REMARK   10  A    between atoms: _25  and  _26
REMARK   11  A    between atoms: _25  and  _28
REMARK   12  A    between atoms: _28  and  _29
REMARK   13  A    between atoms: _34  and  _36
REMARK   14  A    between atoms: _36  and  _37
REMARK   15  A    between atoms: _36  and  _39
REMARK   16  A    between atoms: _39  and  _40
REMARK   17  A    between atoms: _40  and  _41
REMARK   18  A    between atoms: _47  and  _48
REMARK   19  A    between atoms: _53  and  _55
REMARK   20  A    between atoms: _55  and  _56
REMARK   21  A    between atoms: _55  and  _58
REMARK   22  A    between atoms: _58  and  _59
REMARK   23  A    between atoms: _64  and  _66
REMARK   24  A    between atoms: _66  and  _67
REMARK   25  A    between atoms: _66  and  _69
REMARK   26  A    between atoms: _69  and  _70
REMARK   27  A    between atoms: _75  and  _76
REMARK   28  A    between atoms: _78  and  _80
REMARK   29  A    between atoms: _80  and  _81
REMARK   30  A    between atoms: _80  and  _83
REMARK   31  A    between atoms: _83  and  _84
REMARK   32  A    between atoms: _89  and  _91
REMARK   33  A    between atoms: _91  and  _92
REMARK   34  A    between atoms: _91  and  _94
REMARK   35  A    between atoms: _94  and  _95
REMARK   36  A    between atoms: _95  and  _96
REMARK   37  A    between atoms: _99  and  _101
REMARK   38  A    between atoms: _101  and  _102
REMARK   39  A    between atoms: _101  and  _104
REMARK   40  A    between atoms: _104  and  _105
REMARK   41  A    between atoms: _115  and  _117
REMARK   42  A    between atoms: _117  and  _118
REMARK   43  A    between atoms: _117  and  _120
REMARK   44  A    between atoms: _120  and  _121
REMARK   45  A    between atoms: _124  and  _126
REMARK   46  A    between atoms: _126  and  _127
REMARK   47  A    between atoms: _126  and  _129
REMARK   48  A    between atoms: _129  and  _130
REMARK   49  A    between atoms: _133  and  _135
REMARK   50  A    between atoms: _135  and  _136
REMARK   51  A    between atoms: _135  and  _138
REMARK   52  A    between atoms: _138  and  _139
REMARK   53  A    between atoms: _139  and  _140
REMARK   54  A    between atoms: _143  and  _145
REMARK   55  A    between atoms: _145  and  _146
REMARK   56  A    between atoms: _145  and  _148
REMARK   57  A    between atoms: _148  and  _149
REMARK   58  A    between atoms: _149  and  _150
REMARK   59  A    between atoms: _150  and  _151
REMARK   60  A    between atoms: _160  and  _162
REMARK   61  A    between atoms: _162  and  _163
REMARK   62  A    between atoms: _162  and  _165
REMARK   63  A    between atoms: _165  and  _166
REMARK   64  A    between atoms: _169  and  _171
REMARK   65  A    between atoms: _171  and  _172
REMARK   66  A    between atoms: _171  and  _174
REMARK   67  A    between atoms: _174  and  _175
REMARK   68  A    between atoms: _178  and  _180
REMARK   69  A    between atoms: _180  and  _181
REMARK   70  A    between atoms: _180  and  _183
REMARK   71  A    between atoms: _183  and  _184
REMARK   72  A    between atoms: _187  and  _189
REMARK   73  A    between atoms: _189  and  _190
REMARK   74  A    between atoms: _189  and  _192
REMARK   75  A    between atoms: _192  and  _193
REMARK   76  A    between atoms: _193  and  _194
REMARK   77  A    between atoms: _197  and  _199
REMARK   78  A    between atoms: _199  and  _200
REMARK   79  A    between atoms: _199  and  _202
REMARK   80  A    between atoms: _202  and  _203
REMARK   81  A    between atoms: _203  and  _204
REMARK   82  A    between atoms: _204  and  _205
REMARK   83  A    between atoms: _205  and  _206
REMARK   84  A    between atoms: _210  and  _212
REMARK   85  A    between atoms: _212  and  _213
REMARK   86  A    between atoms: _212  and  _215
REMARK   87  A    between atoms: _215  and  _216
REMARK   88  A    between atoms: _219  and  _221
REMARK   89  A    between atoms: _221  and  _222
REMARK   90  A    between atoms: _221  and  _224
REMARK   91  A    between atoms: _224  and  _225
REMARK   92  A    between atoms: _225  and  _226
REMARK   93  A    between atoms: _226  and  _227
REMARK   94  A    between atoms: _236  and  _238
REMARK   95  A    between atoms: _238  and  _239
REMARK   96  A    between atoms: _238  and  _241
REMARK   97  A    between atoms: _241  and  _242
REMARK   98  A    between atoms: _247  and  _248
REMARK   99  A    between atoms: _250  and  _252
REMARK  100  A    between atoms: _252  and  _253
REMARK  101  A    between atoms: _252  and  _255
REMARK  102  A    between atoms: _255  and  _256
REMARK  103  A    between atoms: _259  and  _261
REMARK  104  A    between atoms: _261  and  _262
REMARK  105  A    between atoms: _261  and  _264
REMARK  106  A    between atoms: _264  and  _265
REMARK  107  A    between atoms: _269  and  _270
REMARK  108  A    between atoms: _275  and  _277
REMARK  109  A    between atoms: _277  and  _278
REMARK  110  A    between atoms: _277  and  _280
REMARK  111  A    between atoms: _280  and  _281
REMARK  112  A    between atoms: _287  and  _289
REMARK  113  A    between atoms: _289  and  _290
REMARK  114  A    between atoms: _289  and  _292
REMARK  115  A    between atoms: _292  and  _293
REMARK  116  A    between atoms: _293  and  _294
REMARK  117  A    between atoms: _294  and  _295
REMARK  118  A    between atoms: _304  and  _306
REMARK  119  A    between atoms: _306  and  _307
REMARK  120  A    between atoms: _306  and  _309
REMARK  121  A    between atoms: _309  and  _310
REMARK  122  A    between atoms: _316  and  _318
REMARK  123  A    between atoms: _318  and  _319
REMARK  124  A    between atoms: _318  and  _321
REMARK  125  A    between atoms: _321  and  _322
REMARK  126  A    between atoms: _327  and  _329
REMARK  127  A    between atoms: _329  and  _330
REMARK  128  A    between atoms: _329  and  _332
REMARK  129  A    between atoms: _332  and  _333
REMARK  130  A    between atoms: _336  and  _338
REMARK  131  A    between atoms: _338  and  _339
REMARK  132  A    between atoms: _338  and  _341
REMARK  133  A    between atoms: _341  and  _342
REMARK  134  A    between atoms: _345  and  _347
REMARK  135  A    between atoms: _347  and  _348
REMARK  136  A    between atoms: _350  and  _352
REMARK  137  A    between atoms: _352  and  _353
REMARK  138  A    between atoms: _352  and  _355
REMARK  139  A    between atoms: _355  and  _356
REMARK  140  A    between atoms: _356  and  _357
REMARK  141  A    between atoms: _360  and  _362
REMARK  142  A    between atoms: _362  and  _363
REMARK  143  A    between atoms: _362  and  _365
REMARK  144  A    between atoms: _365  and  _366
REMARK  145  A    between atoms: _366  and  _367
REMARK  146  A    between atoms: _367  and  _368
REMARK  147  A    between atoms: _368  and  _369
REMARK  148  A    between atoms: _373  and  _375
REMARK  149  A    between atoms: _375  and  _376
REMARK  150  A    between atoms: _375  and  _378
REMARK  151  A    between atoms: _378  and  _379
REMARK  152  A    between atoms: _390  and  _391
REMARK  153  A    between atoms: _396  and  _398
REMARK  154  A    between atoms: _398  and  _399
REMARK  155  A    between atoms: _401  and  _403
REMARK  156  A    between atoms: _403  and  _404
REMARK  157  A    between atoms: _403  and  _406
REMARK  158  A    between atoms: _406  and  _407
REMARK  159  A    between atoms: _410  and  _412
REMARK  160  A    between atoms: _412  and  _413
REMARK  161  A    between atoms: _412  and  _415
REMARK  162  A    between atoms: _415  and  _416
REMARK  163  A    between atoms: _418  and  _420
REMARK  164  A    between atoms: _420  and  _421
REMARK  165  A    between atoms: _420  and  _423
REMARK  166  A    between atoms: _423  and  _424
REMARK  167  A    between atoms: _429  and  _430
REMARK  168  A    between atoms: _432  and  _434
REMARK  169  A    between atoms: _434  and  _435
REMARK  170  A    between atoms: _434  and  _437
REMARK  171  A    between atoms: _437  and  _438
REMARK  172  A    between atoms: _444  and  _446
REMARK  173  A    between atoms: _446  and  _447
REMARK  174  A    between atoms: _446  and  _449
REMARK  175  A    between atoms: _449  and  _450
REMARK  176  A    between atoms: _450  and  _451
REMARK  177  A    between atoms: _454  and  _456
REMARK  178  A    between atoms: _456  and  _457
REMARK  179  A    between atoms: _456  and  _459
REMARK  180  A    between atoms: _459  and  _460
REMARK  181  A    between atoms: _460  and  _461
REMARK  182  A    between atoms: _463  and  _465
REMARK  183  A    between atoms: _465  and  _466
REMARK  184  A    between atoms: _465  and  _468
REMARK  185  A    between atoms: _468  and  _469
REMARK  186  A    between atoms: _479  and  _481
REMARK  187  A    between atoms: _481  and  _482
REMARK  188  A    between atoms: _481  and  _484
REMARK  189  A    between atoms: _484  and  _485
REMARK  190  A    between atoms: _495  and  _497
REMARK  191  A    between atoms: _497  and  _498
REMARK  192  A    between atoms: _497  and  _500
REMARK  193  A    between atoms: _500  and  _501
REMARK  194  A    between atoms: _506  and  _508
REMARK  195  A    between atoms: _508  and  _509
REMARK  196  A    between atoms: _508  and  _511
REMARK  197  A    between atoms: _511  and  _512
REMARK  198  A    between atoms: _515  and  _517
REMARK  199  A    between atoms: _517  and  _518
REMARK  200  A    between atoms: _521  and  _523
REMARK  201  A    between atoms: _523  and  _524
REMARK  202  A    between atoms: _523  and  _526
REMARK  203  A    between atoms: _526  and  _527
REMARK  204  A    between atoms: _532  and  _533
REMARK  205  A    between atoms: _535  and  _537
REMARK  206  A    between atoms: _537  and  _538
REMARK  207  A    between atoms: _537  and  _540
REMARK  208  A    between atoms: _540  and  _541
REMARK  209  A    between atoms: _551  and  _553
REMARK  210  A    between atoms: _553  and  _554
REMARK  211  A    between atoms: _553  and  _556
REMARK  212  A    between atoms: _556  and  _557
REMARK  213  A    between atoms: _562  and  _564
REMARK  214  A    between atoms: _564  and  _565
REMARK  215  A    between atoms: _567  and  _569
REMARK  216  A    between atoms: _569  and  _570
REMARK  217  A    between atoms: _569  and  _572
REMARK  218  A    between atoms: _575  and  _577
REMARK  219  A    between atoms: _577  and  _578
REMARK  220  A    between atoms: _577  and  _580
REMARK  221  A    between atoms: _580  and  _581
REMARK  222  A    between atoms: _587  and  _589
REMARK  223  A    between atoms: _589  and  _590
REMARK  224  A    between atoms: _592  and  _594
REMARK  225  A    between atoms: _594  and  _595
REMARK  226  A    between atoms: _597  and  _599
REMARK  227  A    between atoms: _599  and  _600
REMARK  228  A    between atoms: _599  and  _602
REMARK  229  A    between atoms: _602  and  _603
REMARK  230  A    between atoms: _606  and  _608
REMARK  231  A    between atoms: _608  and  _609
REMARK  232  A    between atoms: _608  and  _611
REMARK  233  A    between atoms: _611  and  _612
REMARK  234  A    between atoms: _615  and  _617
REMARK  235  A    between atoms: _617  and  _618
REMARK  236  A    between atoms: _617  and  _620
REMARK  237  A    between atoms: _620  and  _621
REMARK  238  A    between atoms: _624  and  _626
REMARK  239  A    between atoms: _626  and  _627
REMARK  240  A    between atoms: _626  and  _629
REMARK  241  A    between atoms: _629  and  _630
REMARK  242  A    between atoms: _630  and  _631
REMARK                            x       y       z     vdW  Elec       q    Type
REMARK                         _______ _______ _______ _____ _____    ______ ____
ROOT
ATOM      1  O   HOH     1      -2.854  64.031  96.809  0.00  0.00    +0.000 OA
ENDROOT
TORSDOF 0
REMARK  Name = ../refined-set-2016/1k1y/1k1y_pocket.pdb
REMARK  242 active torsions:
REMARK  status: ('A' for Active; 'I' for Inactive)
REMARK    1  A    between atoms: _1  and  _3
REMARK    2  A    between atoms: _3  and  _4
REMARK    3  A    between atoms: _3  and  _6
REMARK    4  A    between atoms: _6  and  _7
REMARK    5  A    between atoms: _12  and  _14
REMARK    6  A    between atoms: _14  and  _15
REMARK    7  A    between atoms: _14  and  _17
REMARK    8  A    between atoms: _17  and  _18
REMARK    9  A    between atoms: _23  and  _25
REMARK   10  A    between atoms: _25  and  _26
REMARK   11  A    between atoms: _25  and  _28
REMARK   12  A    between atoms: _28  and  _29
REMARK   13  A    between atoms: _34  and  _36
REMARK   14  A    between atoms: _36  and  _37
REMARK   15  A    between atoms: _36  and  _39
REMARK   16  A    between atoms: _39  and  _40
REMARK   17  A    between atoms: _40  and  _41
REMARK   18  A    between atoms: _47  and  _48
REMARK   19  A    between atoms: _53  and  _55
REMARK   20  A    between atoms: _55  and  _56
REMARK   21  A    between atoms: _55  and  _58
REMARK   22  A    between atoms: _58  and  _59
REMARK   23  A    between atoms: _64  and  _66
REMARK   24  A    between atoms: _66  and  _67
REMARK   25  A    between atoms: _66  and  _69
REMARK   26  A    between atoms: _69  and  _70
REMARK   27  A    between atoms: _75  and  _76
REMARK   28  A    between atoms: _78  and  _80
REMARK   29  A    between atoms: _80  and  _81
REMARK   30  A    between atoms: _80  and  _83
REMARK   31  A    between atoms: _83  and  _84
REMARK   32  A    between atoms: _89  and  _91
REMARK   33  A    between atoms: _91  and  _92
REMARK   34  A    between atoms: _91  and  _94
REMARK   35  A    between atoms: _94  and  _95
REMARK   36  A    between atoms: _95  and  _96
REMARK   37  A    between atoms: _99  and  _101
REMARK   38  A    between atoms: _101  and  _102
REMARK   39  A    between atoms: _101  and  _104
REMARK   40  A    between atoms: _104  and  _105
REMARK   41  A    between atoms: _115  and  _117
REMARK   42  A    between atoms: _117  and  _118
REMARK   43  A    between atoms: _117  and  _120
REMARK   44  A    between atoms: _120  and  _121
REMARK   45  A    between atoms: _124  and  _126
REMARK   46  A    between atoms: _126  and  _127
REMARK   47  A    between atoms: _126  and  _129
REMARK   48  A    between atoms: _129  and  _130
REMARK   49  A    between atoms: _133  and  _135
REMARK   50  A    between atoms: _135  and  _136
REMARK   51  A    between atoms: _135  and  _138
REMARK   52  A    between atoms: _138  and  _139
REMARK   53  A    between atoms: _139  and  _140
REMARK   54  A    between atoms: _143  and  _145
REMARK   55  A    between atoms: _145  and  _146
REMARK   56  A    between atoms: _145  and  _148
REMARK   57  A    between atoms: _148  and  _149
REMARK   58  A    between atoms: _149  and  _150
REMARK   59  A    between atoms: _150  and  _151
REMARK   60  A    between atoms: _160  and  _162
REMARK   61  A    between atoms: _162  and  _163
REMARK   62  A    between atoms: _162  and  _165
REMARK   63  A    between atoms: _165  and  _166
REMARK   64  A    between atoms: _169  and  _171
REMARK   65  A    between atoms: _171  and  _172
REMARK   66  A    between atoms: _171  and  _174
REMARK   67  A    between atoms: _174  and  _175
REMARK   68  A    between atoms: _178  and  _180
REMARK   69  A    between atoms: _180  and  _181
REMARK   70  A    between atoms: _180  and  _183
REMARK   71  A    between atoms: _183  and  _184
REMARK   72  A    between atoms: _187  and  _189
REMARK   73  A    between atoms: _189  and  _190
REMARK   74  A    between atoms: _189  and  _192
REMARK   75  A    between atoms: _192  and  _193
REMARK   76  A    between atoms: _193  and  _194
REMARK   77  A    between atoms: _197  and  _199
REMARK   78  A    between atoms: _199  and  _200
REMARK   79  A    between atoms: _199  and  _202
REMARK   80  A    between atoms: _202  and  _203
REMARK   81  A    between atoms: _203  and  _204
REMARK   82  A    between atoms: _204  and  _205
REMARK   83  A    between atoms: _205  and  _206
REMARK   84  A    between atoms: _210  and  _212
REMARK   85  A    between atoms: _212  and  _213
REMARK   86  A    between atoms: _212  and  _215
REMARK   87  A    between atoms: _215  and  _216
REMARK   88  A    between atoms: _219  and  _221
REMARK   89  A    between atoms: _221  and  _222
REMARK   90  A    between atoms: _221  and  _224
REMARK   91  A    between atoms: _224  and  _225
REMARK   92  A    between atoms: _225  and  _226
REMARK   93  A    between atoms: _226  and  _227
REMARK   94  A    between atoms: _236  and  _238
REMARK   95  A    between atoms: _238  and  _239
REMARK   96  A    between atoms: _238  and  _241
REMARK   97  A    between atoms: _241  and  _242
REMARK   98  A    between atoms: _247  and  _248
REMARK   99  A    between atoms: _250  and  _252
REMARK  100  A    between atoms: _252  and  _253
REMARK  101  A    between atoms: _252  and  _255
REMARK  102  A    between atoms: _255  and  _256
REMARK  103  A    between atoms: _259  and  _261
REMARK  104  A    between atoms: _261  and  _262
REMARK  105  A    between atoms: _261  and  _264
REMARK  106  A    between atoms: _264  and  _265
REMARK  107  A    between atoms: _269  and  _270
REMARK  108  A    between atoms: _275  and  _277
REMARK  109  A    between atoms: _277  and  _278
REMARK  110  A    between atoms: _277  and  _280
REMARK  111  A    between atoms: _280  and  _281
REMARK  112  A    between atoms: _287  and  _289
REMARK  113  A    between atoms: _289  and  _290
REMARK  114  A    between atoms: _289  and  _292
REMARK  115  A    between atoms: _292  and  _293
REMARK  116  A    between atoms: _293  and  _294
REMARK  117  A    between atoms: _294  and  _295
REMARK  118  A    between atoms: _304  and  _306
REMARK  119  A    between atoms: _306  and  _307
REMARK  120  A    between atoms: _306  and  _309
REMARK  121  A    between atoms: _309  and  _310
REMARK  122  A    between atoms: _316  and  _318
REMARK  123  A    between atoms: _318  and  _319
REMARK  124  A    between atoms: _318  and  _321
REMARK  125  A    between atoms: _321  and  _322
REMARK  126  A    between atoms: _327  and  _329
REMARK  127  A    between atoms: _329  and  _330
REMARK  128  A    between atoms: _329  and  _332
REMARK  129  A    between atoms: _332  and  _333
REMARK  130  A    between atoms: _336  and  _338
REMARK  131  A    between atoms: _338  and  _339
REMARK  132  A    between atoms: _338  and  _341
REMARK  133  A    between atoms: _341  and  _342
REMARK  134  A    between atoms: _345  and  _347
REMARK  135  A    between atoms: _347  and  _348
REMARK  136  A    between atoms: _350  and  _352
REMARK  137  A    between atoms: _352  and  _353
REMARK  138  A    between atoms: _352  and  _355
REMARK  139  A    between atoms: _355  and  _356
REMARK  140  A    between atoms: _356  and  _357
REMARK  141  A    between atoms: _360  and  _362
REMARK  142  A    between atoms: _362  and  _363
REMARK  143  A    between atoms: _362  and  _365
REMARK  144  A    between atoms: _365  and  _366
REMARK  145  A    between atoms: _366  and  _367
REMARK  146  A    between atoms: _367  and  _368
REMARK  147  A    between atoms: _368  and  _369
REMARK  148  A    between atoms: _373  and  _375
REMARK  149  A    between atoms: _375  and  _376
REMARK  150  A    between atoms: _375  and  _378
REMARK  151  A    between atoms: _378  and  _379
REMARK  152  A    between atoms: _390  and  _391
REMARK  153  A    between atoms: _396  and  _398
REMARK  154  A    between atoms: _398  and  _399
REMARK  155  A    between atoms: _401  and  _403
REMARK  156  A    between atoms: _403  and  _404
REMARK  157  A    between atoms: _403  and  _406
REMARK  158  A    between atoms: _406  and  _407
REMARK  159  A    between atoms: _410  and  _412
REMARK  160  A    between atoms: _412  and  _413
REMARK  161  A    between atoms: _412  and  _415
REMARK  162  A    between atoms: _415  and  _416
REMARK  163  A    between atoms: _418  and  _420
REMARK  164  A    between atoms: _420  and  _421
REMARK  165  A    between atoms: _420  and  _423
REMARK  166  A    between atoms: _423  and  _424
REMARK  167  A    between atoms: _429  and  _430
REMARK  168  A    between atoms: _432  and  _434
REMARK  169  A    between atoms: _434  and  _435
REMARK  170  A    between atoms: _434  and  _437
REMARK  171  A    between atoms: _437  and  _438
REMARK  172  A    between atoms: _444  and  _446
REMARK  173  A    between atoms: _446  and  _447
REMARK  174  A    between atoms: _446  and  _449
REMARK  175  A    between atoms: _449  and  _450
REMARK  176  A    between atoms: _450  and  _451
REMARK  177  A    between atoms: _454  and  _456
REMARK  178  A    between atoms: _456  and  _457
REMARK  179  A    between atoms: _456  and  _459
REMARK  180  A    between atoms: _459  and  _460
REMARK  181  A    between atoms: _460  and  _461
REMARK  182  A    between atoms: _463  and  _465
REMARK  183  A    between atoms: _465  and  _466
REMARK  184  A    between atoms: _465  and  _468
REMARK  185  A    between atoms: _468  and  _469
REMARK  186  A    between atoms: _479  and  _481
REMARK  187  A    between atoms: _481  and  _482
REMARK  188  A    between atoms: _481  and  _484
REMARK  189  A    between atoms: _484  and  _485
REMARK  190  A    between atoms: _495  and  _497
REMARK  191  A    between atoms: _497  and  _498
REMARK  192  A    between atoms: _497  and  _500
REMARK  193  A    between atoms: _500  and  _501
REMARK  194  A    between atoms: _506  and  _508
REMARK  195  A    between atoms: _508  and  _509
REMARK  196  A    between atoms: _508  and  _511
REMARK  197  A    between atoms: _511  and  _512
REMARK  198  A    between atoms: _515  and  _517
REMARK  199  A    between atoms: _517  and  _518
REMARK  200  A    between atoms: _521  and  _523
REMARK  201  A    between atoms: _523  and  _524
REMARK  202  A    between atoms: _523  and  _526
REMARK  203  A    between atoms: _526  and  _527
REMARK  204  A    between atoms: _532  and  _533
REMARK  205  A    between atoms: _535  and  _537
REMARK  206  A    between atoms: _537  and  _538
REMARK  207  A    between atoms: _537  and  _540
REMARK  208  A    between atoms: _540  and  _541
REMARK  209  A    between atoms: _551  and  _553
REMARK  210  A    between atoms: _553  and  _554
REMARK  211  A    between atoms: _553  and  _556
REMARK  212  A    between atoms: _556  and  _557
REMARK  213  A    between atoms: _562  and  _564
REMARK  214  A    between atoms: _564  and  _565
REMARK  215  A    between atoms: _567  and  _569
REMARK  216  A    between atoms: _569  and  _570
REMARK  217  A    between atoms: _569  and  _572
REMARK  218  A    between atoms: _575  and  _577
REMARK  219  A    between atoms: _577  and  _578
REMARK  220  A    between atoms: _577  and  _580
REMARK  221  A    between atoms: _580  and  _581
REMARK  222  A    between atoms: _587  and  _589
REMARK  223  A    between atoms: _589  and  _590
REMARK  224  A    between atoms: _592  and  _594
REMARK  225  A    between atoms: _594  and  _595
REMARK  226  A    between atoms: _597  and  _599
REMARK  227  A    between atoms: _599  and  _600
REMARK  228  A    between atoms: _599  and  _602
REMARK  229  A    between atoms: _602  and  _603
REMARK  230  A    between atoms: _606  and  _608
REMARK  231  A    between atoms: _608  and  _609
REMARK  232  A    between atoms: _608  and  _611
REMARK  233  A    between atoms: _611  and  _612
REMARK  234  A    between atoms: _615  and  _617
REMARK  235  A    between atoms: _617  and  _618
REMARK  236  A    between atoms: _617  and  _620
REMARK  237  A    between atoms: _620  and  _621
REMARK  238  A    between atoms: _624  and  _626
REMARK  239  A    between atoms: _626  and  _627
REMARK  240  A    between atoms: _626  and  _629
REMARK  241  A    between atoms: _629  and  _630
REMARK  242  A    between atoms: _630  and  _631
REMARK                            x       y       z     vdW  Elec       q    Type
REMARK                         _______ _______ _______ _____ _____    ______ ____
ROOT
ATOM      1  O   HOH     1       8.355  46.895  94.707  0.00  0.00    +0.000 OA
ENDROOT
TORSDOF 0
REMARK  Name = ../refined-set-2016/1k1y/1k1y_pocket.pdb
REMARK  242 active torsions:
REMARK  status: ('A' for Active; 'I' for Inactive)
REMARK    1  A    between atoms: _1  and  _3
REMARK    2  A    between atoms: _3  and  _4
REMARK    3  A    between atoms: _3  and  _6
REMARK    4  A    between atoms: _6  and  _7
REMARK    5  A    between atoms: _12  and  _14
REMARK    6  A    between atoms: _14  and  _15
REMARK    7  A    between atoms: _14  and  _17
REMARK    8  A    between atoms: _17  and  _18
REMARK    9  A    between atoms: _23  and  _25
REMARK   10  A    between atoms: _25  and  _26
REMARK   11  A    between atoms: _25  and  _28
REMARK   12  A    between atoms: _28  and  _29
REMARK   13  A    between atoms: _34  and  _36
REMARK   14  A    between atoms: _36  and  _37
REMARK   15  A    between atoms: _36  and  _39
REMARK   16  A    between atoms: _39  and  _40
REMARK   17  A    between atoms: _40  and  _41
REMARK   18  A    between atoms: _47  and  _48
REMARK   19  A    between atoms: _53  and  _55
REMARK   20  A    between atoms: _55  and  _56
REMARK   21  A    between atoms: _55  and  _58
REMARK   22  A    between atoms: _58  and  _59
REMARK   23  A    between atoms: _64  and  _66
REMARK   24  A    between atoms: _66  and  _67
REMARK   25  A    between atoms: _66  and  _69
REMARK   26  A    between atoms: _69  and  _70
REMARK   27  A    between atoms: _75  and  _76
REMARK   28  A    between atoms: _78  and  _80
REMARK   29  A    between atoms: _80  and  _81
REMARK   30  A    between atoms: _80  and  _83
REMARK   31  A    between atoms: _83  and  _84
REMARK   32  A    between atoms: _89  and  _91
REMARK   33  A    between atoms: _91  and  _92
REMARK   34  A    between atoms: _91  and  _94
REMARK   35  A    between atoms: _94  and  _95
REMARK   36  A    between atoms: _95  and  _96
REMARK   37  A    between atoms: _99  and  _101
REMARK   38  A    between atoms: _101  and  _102
REMARK   39  A    between atoms: _101  and  _104
REMARK   40  A    between atoms: _104  and  _105
REMARK   41  A    between atoms: _115  and  _117
REMARK   42  A    between atoms: _117  and  _118
REMARK   43  A    between atoms: _117  and  _120
REMARK   44  A    between atoms: _120  and  _121
REMARK   45  A    between atoms: _124  and  _126
REMARK   46  A    between atoms: _126  and  _127
REMARK   47  A    between atoms: _126  and  _129
REMARK   48  A    between atoms: _129  and  _130
REMARK   49  A    between atoms: _133  and  _135
REMARK   50  A    between atoms: _135  and  _136
REMARK   51  A    between atoms: _135  and  _138
REMARK   52  A    between atoms: _138  and  _139
REMARK   53  A    between atoms: _139  and  _140
REMARK   54  A    between atoms: _143  and  _145
REMARK   55  A    between atoms: _145  and  _146
REMARK   56  A    between atoms: _145  and  _148
REMARK   57  A    between atoms: _148  and  _149
REMARK   58  A    between atoms: _149  and  _150
REMARK   59  A    between atoms: _150  and  _151
REMARK   60  A    between atoms: _160  and  _162
REMARK   61  A    between atoms: _162  and  _163
REMARK   62  A    between atoms: _162  and  _165
REMARK   63  A    between atoms: _165  and  _166
REMARK   64  A    between atoms: _169  and  _171
REMARK   65  A    between atoms: _171  and  _172
REMARK   66  A    between atoms: _171  and  _174
REMARK   67  A    between atoms: _174  and  _175
REMARK   68  A    between atoms: _178  and  _180
REMARK   69  A    between atoms: _180  and  _181
REMARK   70  A    between atoms: _180  and  _183
REMARK   71  A    between atoms: _183  and  _184
REMARK   72  A    between atoms: _187  and  _189
REMARK   73  A    between atoms: _189  and  _190
REMARK   74  A    between atoms: _189  and  _192
REMARK   75  A    between atoms: _192  and  _193
REMARK   76  A    between atoms: _193  and  _194
REMARK   77  A    between atoms: _197  and  _199
REMARK   78  A    between atoms: _199  and  _200
REMARK   79  A    between atoms: _199  and  _202
REMARK   80  A    between atoms: _202  and  _203
REMARK   81  A    between atoms: _203  and  _204
REMARK   82  A    between atoms: _204  and  _205
REMARK   83  A    between atoms: _205  and  _206
REMARK   84  A    between atoms: _210  and  _212
REMARK   85  A    between atoms: _212  and  _213
REMARK   86  A    between atoms: _212  and  _215
REMARK   87  A    between atoms: _215  and  _216
REMARK   88  A    between atoms: _219  and  _221
REMARK   89  A    between atoms: _221  and  _222
REMARK   90  A    between atoms: _221  and  _224
REMARK   91  A    between atoms: _224  and  _225
REMARK   92  A    between atoms: _225  and  _226
REMARK   93  A    between atoms: _226  and  _227
REMARK   94  A    between atoms: _236  and  _238
REMARK   95  A    between atoms: _238  and  _239
REMARK   96  A    between atoms: _238  and  _241
REMARK   97  A    between atoms: _241  and  _242
REMARK   98  A    between atoms: _247  and  _248
REMARK   99  A    between atoms: _250  and  _252
REMARK  100  A    between atoms: _252  and  _253
REMARK  101  A    between atoms: _252  and  _255
REMARK  102  A    between atoms: _255  and  _256
REMARK  103  A    between atoms: _259  and  _261
REMARK  104  A    between atoms: _261  and  _262
REMARK  105  A    between atoms: _261  and  _264
REMARK  106  A    between atoms: _264  and  _265
REMARK  107  A    between atoms: _269  and  _270
REMARK  108  A    between atoms: _275  and  _277
REMARK  109  A    between atoms: _277  and  _278
REMARK  110  A    between atoms: _277  and  _280
REMARK  111  A    between atoms: _280  and  _281
REMARK  112  A    between atoms: _287  and  _289
REMARK  113  A    between atoms: _289  and  _290
REMARK  114  A    between atoms: _289  and  _292
REMARK  115  A    between atoms: _292  and  _293
REMARK  116  A    between atoms: _293  and  _294
REMARK  117  A    between atoms: _294  and  _295
REMARK  118  A    between atoms: _304  and  _306
REMARK  119  A    between atoms: _306  and  _307
REMARK  120  A    between atoms: _306  and  _309
REMARK  121  A    between atoms: _309  and  _310
REMARK  122  A    between atoms: _316  and  _318
REMARK  123  A    between atoms: _318  and  _319
REMARK  124  A    between atoms: _318  and  _321
REMARK  125  A    between atoms: _321  and  _322
REMARK  126  A    between atoms: _327  and  _329
REMARK  127  A    between atoms: _329  and  _330
REMARK  128  A    between atoms: _329  and  _332
REMARK  129  A    between atoms: _332  and  _333
REMARK  130  A    between atoms: _336  and  _338
REMARK  131  A    between atoms: _338  and  _339
REMARK  132  A    between atoms: _338  and  _341
REMARK  133  A    between atoms: _341  and  _342
REMARK  134  A    between atoms: _345  and  _347
REMARK  135  A    between atoms: _347  and  _348
REMARK  136  A    between atoms: _350  and  _352
REMARK  137  A    between atoms: _352  and  _353
REMARK  138  A    between atoms: _352  and  _355
REMARK  139  A    between atoms: _355  and  _356
REMARK  140  A    between atoms: _356  and  _357
REMARK  141  A    between atoms: _360  and  _362
REMARK  142  A    between atoms: _362  and  _363
REMARK  143  A    between atoms: _362  and  _365
REMARK  144  A    between atoms: _365  and  _366
REMARK  145  A    between atoms: _366  and  _367
REMARK  146  A    between atoms: _367  and  _368
REMARK  147  A    between atoms: _368  and  _369
REMARK  148  A    between atoms: _373  and  _375
REMARK  149  A    between atoms: _375  and  _376
REMARK  150  A    between atoms: _375  and  _378
REMARK  151  A    between atoms: _378  and  _379
REMARK  152  A    between atoms: _390  and  _391
REMARK  153  A    between atoms: _396  and  _398
REMARK  154  A    between atoms: _398  and  _399
REMARK  155  A    between atoms: _401  and  _403
REMARK  156  A    between atoms: _403  and  _404
REMARK  157  A    between atoms: _403  and  _406
REMARK  158  A    between atoms: _406  and  _407
REMARK  159  A    between atoms: _410  and  _412
REMARK  160  A    between atoms: _412  and  _413
REMARK  161  A    between atoms: _412  and  _415
REMARK  162  A    between atoms: _415  and  _416
REMARK  163  A    between atoms: _418  and  _420
REMARK  164  A    between atoms: _420  and  _421
REMARK  165  A    between atoms: _420  and  _423
REMARK  166  A    between atoms: _423  and  _424
REMARK  167  A    between atoms: _429  and  _430
REMARK  168  A    between atoms: _432  and  _434
REMARK  169  A    between atoms: _434  and  _435
REMARK  170  A    between atoms: _434  and  _437
REMARK  171  A    between atoms: _437  and  _438
REMARK  172  A    between atoms: _444  and  _446
REMARK  173  A    between atoms: _446  and  _447
REMARK  174  A    between atoms: _446  and  _449
REMARK  175  A    between atoms: _449  and  _450
REMARK  176  A    between atoms: _450  and  _451
REMARK  177  A    between atoms: _454  and  _456
REMARK  178  A    between atoms: _456  and  _457
REMARK  179  A    between atoms: _456  and  _459
REMARK  180  A    between atoms: _459  and  _460
REMARK  181  A    between atoms: _460  and  _461
REMARK  182  A    between atoms: _463  and  _465
REMARK  183  A    between atoms: _465  and  _466
REMARK  184  A    between atoms: _465  and  _468
REMARK  185  A    between atoms: _468  and  _469
REMARK  186  A    between atoms: _479  and  _481
REMARK  187  A    between atoms: _481  and  _482
REMARK  188  A    between atoms: _481  and  _484
REMARK  189  A    between atoms: _484  and  _485
REMARK  190  A    between atoms: _495  and  _497
REMARK  191  A    between atoms: _497  and  _498
REMARK  192  A    between atoms: _497  and  _500
REMARK  193  A    between atoms: _500  and  _501
REMARK  194  A    between atoms: _506  and  _508
REMARK  195  A    between atoms: _508  and  _509
REMARK  196  A    between atoms: _508  and  _511
REMARK  197  A    between atoms: _511  and  _512
REMARK  198  A    between atoms: _515  and  _517
REMARK  199  A    between atoms: _517  and  _518
REMARK  200  A    between atoms: _521  and  _523
REMARK  201  A    between atoms: _523  and  _524
REMARK  202  A    between atoms: _523  and  _526
REMARK  203  A    between atoms: _526  and  _527
REMARK  204  A    between atoms: _532  and  _533
REMARK  205  A    between atoms: _535  and  _537
REMARK  206  A    between atoms: _537  and  _538
REMARK  207  A    between atoms: _537  and  _540
REMARK  208  A    between atoms: _540  and  _541
REMARK  209  A    between atoms: _551  and  _553
REMARK  210  A    between atoms: _553  and  _554
REMARK  211  A    between atoms: _553  and  _556
REMARK  212  A    between atoms: _556  and  _557
REMARK  213  A    between atoms: _562  and  _564
REMARK  214  A    between atoms: _564  and  _565
REMARK  215  A    between atoms: _567  and  _569
REMARK  216  A    between atoms: _569  and  _570
REMARK  217  A    between atoms: _569  and  _572
REMARK  218  A    between atoms: _575  and  _577
REMARK  219  A    between atoms: _577  and  _578
REMARK  220  A    between atoms: _577  and  _580
REMARK  221  A    between atoms: _580  and  _581
REMARK  222  A    between atoms: _587  and  _589
REMARK  223  A    between atoms: _589  and  _590
REMARK  224  A    between atoms: _592  and  _594
REMARK  225  A    between atoms: _594  and  _595
REMARK  226  A    between atoms: _597  and  _599
REMARK  227  A    between atoms: _599  and  _600
REMARK  228  A    between atoms: _599  and  _602
REMARK  229  A    between atoms: _602  and  _603
REMARK  230  A    between atoms: _606  and  _608
REMARK  231  A    between atoms: _608  and  _609
REMARK  232  A    between atoms: _608  and  _611
REMARK  233  A    between atoms: _611  and  _612
REMARK  234  A    between atoms: _615  and  _617
REMARK  235  A    between atoms: _617  and  _618
REMARK  236  A    between atoms: _617  and  _620
REMARK  237  A    between atoms: _620  and  _621
REMARK  238  A    between atoms: _624  and  _626
REMARK  239  A    between atoms: _626  and  _627
REMARK  240  A    between atoms: _626  and  _629
REMARK  241  A    between atoms: _629  and  _630
REMARK  242  A    between atoms: _630  and  _631
REMARK                            x       y       z     vdW  Elec       q    Type
REMARK                         _______ _______ _______ _____ _____    ______ ____
ROOT
ATOM      1  O   HOH     1       0.503  58.508  94.160  0.00  0.00    +0.000 OA
ENDROOT
TORSDOF 0
REMARK  Name = ../refined-set-2016/1k1y/1k1y_pocket.pdb
REMARK  242 active torsions:
REMARK  status: ('A' for Active; 'I' for Inactive)
REMARK    1  A    between atoms: _1  and  _3
REMARK    2  A    between atoms: _3  and  _4
REMARK    3  A    between atoms: _3  and  _6
REMARK    4  A    between atoms: _6  and  _7
REMARK    5  A    between atoms: _12  and  _14
REMARK    6  A    between atoms: _14  and  _15
REMARK    7  A    between atoms: _14  and  _17
REMARK    8  A    between atoms: _17  and  _18
REMARK    9  A    between atoms: _23  and  _25
REMARK   10  A    between atoms: _25  and  _26
REMARK   11  A    between atoms: _25  and  _28
REMARK   12  A    between atoms: _28  and  _29
REMARK   13  A    between atoms: _34  and  _36
REMARK   14  A    between atoms: _36  and  _37
REMARK   15  A    between atoms: _36  and  _39
REMARK   16  A    between atoms: _39  and  _40
REMARK   17  A    between atoms: _40  and  _41
REMARK   18  A    between atoms: _47  and  _48
REMARK   19  A    between atoms: _53  and  _55
REMARK   20  A    between atoms: _55  and  _56
REMARK   21  A    between atoms: _55  and  _58
REMARK   22  A    between atoms: _58  and  _59
REMARK   23  A    between atoms: _64  and  _66
REMARK   24  A    between atoms: _66  and  _67
REMARK   25  A    between atoms: _66  and  _69
REMARK   26  A    between atoms: _69  and  _70
REMARK   27  A    between atoms: _75  and  _76
REMARK   28  A    between atoms: _78  and  _80
REMARK   29  A    between atoms: _80  and  _81
REMARK   30  A    between atoms: _80  and  _83
REMARK   31  A    between atoms: _83  and  _84
REMARK   32  A    between atoms: _89  and  _91
REMARK   33  A    between atoms: _91  and  _92
REMARK   34  A    between atoms: _91  and  _94
REMARK   35  A    between atoms: _94  and  _95
REMARK   36  A    between atoms: _95  and  _96
REMARK   37  A    between atoms: _99  and  _101
REMARK   38  A    between atoms: _101  and  _102
REMARK   39  A    between atoms: _101  and  _104
REMARK   40  A    between atoms: _104  and  _105
REMARK   41  A    between atoms: _115  and  _117
REMARK   42  A    between atoms: _117  and  _118
REMARK   43  A    between atoms: _117  and  _120
REMARK   44  A    between atoms: _120  and  _121
REMARK   45  A    between atoms: _124  and  _126
REMARK   46  A    between atoms: _126  and  _127
REMARK   47  A    between atoms: _126  and  _129
REMARK   48  A    between atoms: _129  and  _130
REMARK   49  A    between atoms: _133  and  _135
REMARK   50  A    between atoms: _135  and  _136
REMARK   51  A    between atoms: _135  and  _138
REMARK   52  A    between atoms: _138  and  _139
REMARK   53  A    between atoms: _139  and  _140
REMARK   54  A    between atoms: _143  and  _145
REMARK   55  A    between atoms: _145  and  _146
REMARK   56  A    between atoms: _145  and  _148
REMARK   57  A    between atoms: _148  and  _149
REMARK   58  A    between atoms: _149  and  _150
REMARK   59  A    between atoms: _150  and  _151
REMARK   60  A    between atoms: _160  and  _162
REMARK   61  A    between atoms: _162  and  _163
REMARK   62  A    between atoms: _162  and  _165
REMARK   63  A    between atoms: _165  and  _166
REMARK   64  A    between atoms: _169  and  _171
REMARK   65  A    between atoms: _171  and  _172
REMARK   66  A    between atoms: _171  and  _174
REMARK   67  A    between atoms: _174  and  _175
REMARK   68  A    between atoms: _178  and  _180
REMARK   69  A    between atoms: _180  and  _181
REMARK   70  A    between atoms: _180  and  _183
REMARK   71  A    between atoms: _183  and  _184
REMARK   72  A    between atoms: _187  and  _189
REMARK   73  A    between atoms: _189  and  _190
REMARK   74  A    between atoms: _189  and  _192
REMARK   75  A    between atoms: _192  and  _193
REMARK   76  A    between atoms: _193  and  _194
REMARK   77  A    between atoms: _197  and  _199
REMARK   78  A    between atoms: _199  and  _200
REMARK   79  A    between atoms: _199  and  _202
REMARK   80  A    between atoms: _202  and  _203
REMARK   81  A    between atoms: _203  and  _204
REMARK   82  A    between atoms: _204  and  _205
REMARK   83  A    between atoms: _205  and  _206
REMARK   84  A    between atoms: _210  and  _212
REMARK   85  A    between atoms: _212  and  _213
REMARK   86  A    between atoms: _212  and  _215
REMARK   87  A    between atoms: _215  and  _216
REMARK   88  A    between atoms: _219  and  _221
REMARK   89  A    between atoms: _221  and  _222
REMARK   90  A    between atoms: _221  and  _224
REMARK   91  A    between atoms: _224  and  _225
REMARK   92  A    between atoms: _225  and  _226
REMARK   93  A    between atoms: _226  and  _227
REMARK   94  A    between atoms: _236  and  _238
REMARK   95  A    between atoms: _238  and  _239
REMARK   96  A    between atoms: _238  and  _241
REMARK   97  A    between atoms: _241  and  _242
REMARK   98  A    between atoms: _247  and  _248
REMARK   99  A    between atoms: _250  and  _252
REMARK  100  A    between atoms: _252  and  _253
REMARK  101  A    between atoms: _252  and  _255
REMARK  102  A    between atoms: _255  and  _256
REMARK  103  A    between atoms: _259  and  _261
REMARK  104  A    between atoms: _261  and  _262
REMARK  105  A    between atoms: _261  and  _264
REMARK  106  A    between atoms: _264  and  _265
REMARK  107  A    between atoms: _269  and  _270
REMARK  108  A    between atoms: _275  and  _277
REMARK  109  A    between atoms: _277  and  _278
REMARK  110  A    between atoms: _277  and  _280
REMARK  111  A    between atoms: _280  and  _281
REMARK  112  A    between atoms: _287  and  _289
REMARK  113  A    between atoms: _289  and  _290
REMARK  114  A    between atoms: _289  and  _292
REMARK  115  A    between atoms: _292  and  _293
REMARK  116  A    between atoms: _293  and  _294
REMARK  117  A    between atoms: _294  and  _295
REMARK  118  A    between atoms: _304  and  _306
REMARK  119  A    between atoms: _306  and  _307
REMARK  120  A    between atoms: _306  and  _309
REMARK  121  A    between atoms: _309  and  _310
REMARK  122  A    between atoms: _316  and  _318
REMARK  123  A    between atoms: _318  and  _319
REMARK  124  A    between atoms: _318  and  _321
REMARK  125  A    between atoms: _321  and  _322
REMARK  126  A    between atoms: _327  and  _329
REMARK  127  A    between atoms: _329  and  _330
REMARK  128  A    between atoms: _329  and  _332
REMARK  129  A    between atoms: _332  and  _333
REMARK  130  A    between atoms: _336  and  _338
REMARK  131  A    between atoms: _338  and  _339
REMARK  132  A    between atoms: _338  and  _341
REMARK  133  A    between atoms: _341  and  _342
REMARK  134  A    between atoms: _345  and  _347
REMARK  135  A    between atoms: _347  and  _348
REMARK  136  A    between atoms: _350  and  _352
REMARK  137  A    between atoms: _352  and  _353
REMARK  138  A    between atoms: _352  and  _355
REMARK  139  A    between atoms: _355  and  _356
REMARK  140  A    between atoms: _356  and  _357
REMARK  141  A    between atoms: _360  and  _362
REMARK  142  A    between atoms: _362  and  _363
REMARK  143  A    between atoms: _362  and  _365
REMARK  144  A    between atoms: _365  and  _366
REMARK  145  A    between atoms: _366  and  _367
REMARK  146  A    between atoms: _367  and  _368
REMARK  147  A    between atoms: _368  and  _369
REMARK  148  A    between atoms: _373  and  _375
REMARK  149  A    between atoms: _375  and  _376
REMARK  150  A    between atoms: _375  and  _378
REMARK  151  A    between atoms: _378  and  _379
REMARK  152  A    between atoms: _390  and  _391
REMARK  153  A    between atoms: _396  and  _398
REMARK  154  A    between atoms: _398  and  _399
REMARK  155  A    between atoms: _401  and  _403
REMARK  156  A    between atoms: _403  and  _404
REMARK  157  A    between atoms: _403  and  _406
REMARK  158  A    between atoms: _406  and  _407
REMARK  159  A    between atoms: _410  and  _412
REMARK  160  A    between atoms: _412  and  _413
REMARK  161  A    between atoms: _412  and  _415
REMARK  162  A    between atoms: _415  and  _416
REMARK  163  A    between atoms: _418  and  _420
REMARK  164  A    between atoms: _420  and  _421
REMARK  165  A    between atoms: _420  and  _423
REMARK  166  A    between atoms: _423  and  _424
REMARK  167  A    between atoms: _429  and  _430
REMARK  168  A    between atoms: _432  and  _434
REMARK  169  A    between atoms: _434  and  _435
REMARK  170  A    between atoms: _434  and  _437
REMARK  171  A    between atoms: _437  and  _438
REMARK  172  A    between atoms: _444  and  _446
REMARK  173  A    between atoms: _446  and  _447
REMARK  174  A    between atoms: _446  and  _449
REMARK  175  A    between atoms: _449  and  _450
REMARK  176  A    between atoms: _450  and  _451
REMARK  177  A    between atoms: _454  and  _456
REMARK  178  A    between atoms: _456  and  _457
REMARK  179  A    between atoms: _456  and  _459
REMARK  180  A    between atoms: _459  and  _460
REMARK  181  A    between atoms: _460  and  _461
REMARK  182  A    between atoms: _463  and  _465
REMARK  183  A    between atoms: _465  and  _466
REMARK  184  A    between atoms: _465  and  _468
REMARK  185  A    between atoms: _468  and  _469
REMARK  186  A    between atoms: _479  and  _481
REMARK  187  A    between atoms: _481  and  _482
REMARK  188  A    between atoms: _481  and  _484
REMARK  189  A    between atoms: _484  and  _485
REMARK  190  A    between atoms: _495  and  _497
REMARK  191  A    between atoms: _497  and  _498
REMARK  192  A    between atoms: _497  and  _500
REMARK  193  A    between atoms: _500  and  _501
REMARK  194  A    between atoms: _506  and  _508
REMARK  195  A    between atoms: _508  and  _509
REMARK  196  A    between atoms: _508  and  _511
REMARK  197  A    between atoms: _511  and  _512
REMARK  198  A    between atoms: _515  and  _517
REMARK  199  A    between atoms: _517  and  _518
REMARK  200  A    between atoms: _521  and  _523
REMARK  201  A    between atoms: _523  and  _524
REMARK  202  A    between atoms: _523  and  _526
REMARK  203  A    between atoms: _526  and  _527
REMARK  204  A    between atoms: _532  and  _533
REMARK  205  A    between atoms: _535  and  _537
REMARK  206  A    between atoms: _537  and  _538
REMARK  207  A    between atoms: _537  and  _540
REMARK  208  A    between atoms: _540  and  _541
REMARK  209  A    between atoms: _551  and  _553
REMARK  210  A    between atoms: _553  and  _554
REMARK  211  A    between atoms: _553  and  _556
REMARK  212  A    between atoms: _556  and  _557
REMARK  213  A    between atoms: _562  and  _564
REMARK  214  A    between atoms: _564  and  _565
REMARK  215  A    between atoms: _567  and  _569
REMARK  216  A    between atoms: _569  and  _570
REMARK  217  A    between atoms: _569  and  _572
REMARK  218  A    between atoms: _575  and  _577
REMARK  219  A    between atoms: _577  and  _578
REMARK  220  A    between atoms: _577  and  _580
REMARK  221  A    between atoms: _580  and  _581
REMARK  222  A    between atoms: _587  and  _589
REMARK  223  A    between atoms: _589  and  _590
REMARK  224  A    between atoms: _592  and  _594
REMARK  225  A    between atoms: _594  and  _595
REMARK  226  A    between atoms: _597  and  _599
REMARK  227  A    between atoms: _599  and  _600
REMARK  228  A    between atoms: _599  and  _602
REMARK  229  A    between atoms: _602  and  _603
REMARK  230  A    between atoms: _606  and  _608
REMARK  231  A    between atoms: _608  and  _609
REMARK  232  A    between atoms: _608  and  _611
REMARK  233  A    between atoms: _611  and  _612
REMARK  234  A    between atoms: _615  and  _617
REMARK  235  A    between atoms: _617  and  _618
REMARK  236  A    between atoms: _617  and  _620
REMARK  237  A    between atoms: _620  and  _621
REMARK  238  A    between atoms: _624  and  _626
REMARK  239  A    between atoms: _626  and  _627
REMARK  240  A    between atoms: _626  and  _629
REMARK  241  A    between atoms: _629  and  _630
REMARK  242  A    between atoms: _630  and  _631
REMARK                            x       y       z     vdW  Elec       q    Type
REMARK                         _______ _______ _______ _____ _____    ______ ____
ROOT
ATOM      1  O   HOH     1      -0.583  61.219  96.964  0.00  0.00    +0.000 OA
ENDROOT
TORSDOF 0
REMARK  Name = ../refined-set-2016/1k1y/1k1y_pocket.pdb
REMARK  242 active torsions:
REMARK  status: ('A' for Active; 'I' for Inactive)
REMARK    1  A    between atoms: _1  and  _3
REMARK    2  A    between atoms: _3  and  _4
REMARK    3  A    between atoms: _3  and  _6
REMARK    4  A    between atoms: _6  and  _7
REMARK    5  A    between atoms: _12  and  _14
REMARK    6  A    between atoms: _14  and  _15
REMARK    7  A    between atoms: _14  and  _17
REMARK    8  A    between atoms: _17  and  _18
REMARK    9  A    between atoms: _23  and  _25
REMARK   10  A    between atoms: _25  and  _26
REMARK   11  A    between atoms: _25  and  _28
REMARK   12  A    between atoms: _28  and  _29
REMARK   13  A    between atoms: _34  and  _36
REMARK   14  A    between atoms: _36  and  _37
REMARK   15  A    between atoms: _36  and  _39
REMARK   16  A    between atoms: _39  and  _40
REMARK   17  A    between atoms: _40  and  _41
REMARK   18  A    between atoms: _47  and  _48
REMARK   19  A    between atoms: _53  and  _55
REMARK   20  A    between atoms: _55  and  _56
REMARK   21  A    between atoms: _55  and  _58
REMARK   22  A    between atoms: _58  and  _59
REMARK   23  A    between atoms: _64  and  _66
REMARK   24  A    between atoms: _66  and  _67
REMARK   25  A    between atoms: _66  and  _69
REMARK   26  A    between atoms: _69  and  _70
REMARK   27  A    between atoms: _75  and  _76
REMARK   28  A    between atoms: _78  and  _80
REMARK   29  A    between atoms: _80  and  _81
REMARK   30  A    between atoms: _80  and  _83
REMARK   31  A    between atoms: _83  and  _84
REMARK   32  A    between atoms: _89  and  _91
REMARK   33  A    between atoms: _91  and  _92
REMARK   34  A    between atoms: _91  and  _94
REMARK   35  A    between atoms: _94  and  _95
REMARK   36  A    between atoms: _95  and  _96
REMARK   37  A    between atoms: _99  and  _101
REMARK   38  A    between atoms: _101  and  _102
REMARK   39  A    between atoms: _101  and  _104
REMARK   40  A    between atoms: _104  and  _105
REMARK   41  A    between atoms: _115  and  _117
REMARK   42  A    between atoms: _117  and  _118
REMARK   43  A    between atoms: _117  and  _120
REMARK   44  A    between atoms: _120  and  _121
REMARK   45  A    between atoms: _124  and  _126
REMARK   46  A    between atoms: _126  and  _127
REMARK   47  A    between atoms: _126  and  _129
REMARK   48  A    between atoms: _129  and  _130
REMARK   49  A    between atoms: _133  and  _135
REMARK   50  A    between atoms: _135  and  _136
REMARK   51  A    between atoms: _135  and  _138
REMARK   52  A    between atoms: _138  and  _139
REMARK   53  A    between atoms: _139  and  _140
REMARK   54  A    between atoms: _143  and  _145
REMARK   55  A    between atoms: _145  and  _146
REMARK   56  A    between atoms: _145  and  _148
REMARK   57  A    between atoms: _148  and  _149
REMARK   58  A    between atoms: _149  and  _150
REMARK   59  A    between atoms: _150  and  _151
REMARK   60  A    between atoms: _160  and  _162
REMARK   61  A    between atoms: _162  and  _163
REMARK   62  A    between atoms: _162  and  _165
REMARK   63  A    between atoms: _165  and  _166
REMARK   64  A    between atoms: _169  and  _171
REMARK   65  A    between atoms: _171  and  _172
REMARK   66  A    between atoms: _171  and  _174
REMARK   67  A    between atoms: _174  and  _175
REMARK   68  A    between atoms: _178  and  _180
REMARK   69  A    between atoms: _180  and  _181
REMARK   70  A    between atoms: _180  and  _183
REMARK   71  A    between atoms: _183  and  _184
REMARK   72  A    between atoms: _187  and  _189
REMARK   73  A    between atoms: _189  and  _190
REMARK   74  A    between atoms: _189  and  _192
REMARK   75  A    between atoms: _192  and  _193
REMARK   76  A    between atoms: _193  and  _194
REMARK   77  A    between atoms: _197  and  _199
REMARK   78  A    between atoms: _199  and  _200
REMARK   79  A    between atoms: _199  and  _202
REMARK   80  A    between atoms: _202  and  _203
REMARK   81  A    between atoms: _203  and  _204
REMARK   82  A    between atoms: _204  and  _205
REMARK   83  A    between atoms: _205  and  _206
REMARK   84  A    between atoms: _210  and  _212
REMARK   85  A    between atoms: _212  and  _213
REMARK   86  A    between atoms: _212  and  _215
REMARK   87  A    between atoms: _215  and  _216
REMARK   88  A    between atoms: _219  and  _221
REMARK   89  A    between atoms: _221  and  _222
REMARK   90  A    between atoms: _221  and  _224
REMARK   91  A    between atoms: _224  and  _225
REMARK   92  A    between atoms: _225  and  _226
REMARK   93  A    between atoms: _226  and  _227
REMARK   94  A    between atoms: _236  and  _238
REMARK   95  A    between atoms: _238  and  _239
REMARK   96  A    between atoms: _238  and  _241
REMARK   97  A    between atoms: _241  and  _242
REMARK   98  A    between atoms: _247  and  _248
REMARK   99  A    between atoms: _250  and  _252
REMARK  100  A    between atoms: _252  and  _253
REMARK  101  A    between atoms: _252  and  _255
REMARK  102  A    between atoms: _255  and  _256
REMARK  103  A    between atoms: _259  and  _261
REMARK  104  A    between atoms: _261  and  _262
REMARK  105  A    between atoms: _261  and  _264
REMARK  106  A    between atoms: _264  and  _265
REMARK  107  A    between atoms: _269  and  _270
REMARK  108  A    between atoms: _275  and  _277
REMARK  109  A    between atoms: _277  and  _278
REMARK  110  A    between atoms: _277  and  _280
REMARK  111  A    between atoms: _280  and  _281
REMARK  112  A    between atoms: _287  and  _289
REMARK  113  A    between atoms: _289  and  _290
REMARK  114  A    between atoms: _289  and  _292
REMARK  115  A    between atoms: _292  and  _293
REMARK  116  A    between atoms: _293  and  _294
REMARK  117  A    between atoms: _294  and  _295
REMARK  118  A    between atoms: _304  and  _306
REMARK  119  A    between atoms: _306  and  _307
REMARK  120  A    between atoms: _306  and  _309
REMARK  121  A    between atoms: _309  and  _310
REMARK  122  A    between atoms: _316  and  _318
REMARK  123  A    between atoms: _318  and  _319
REMARK  124  A    between atoms: _318  and  _321
REMARK  125  A    between atoms: _321  and  _322
REMARK  126  A    between atoms: _327  and  _329
REMARK  127  A    between atoms: _329  and  _330
REMARK  128  A    between atoms: _329  and  _332
REMARK  129  A    between atoms: _332  and  _333
REMARK  130  A    between atoms: _336  and  _338
REMARK  131  A    between atoms: _338  and  _339
REMARK  132  A    between atoms: _338  and  _341
REMARK  133  A    between atoms: _341  and  _342
REMARK  134  A    between atoms: _345  and  _347
REMARK  135  A    between atoms: _347  and  _348
REMARK  136  A    between atoms: _350  and  _352
REMARK  137  A    between atoms: _352  and  _353
REMARK  138  A    between atoms: _352  and  _355
REMARK  139  A    between atoms: _355  and  _356
REMARK  140  A    between atoms: _356  and  _357
REMARK  141  A    between atoms: _360  and  _362
REMARK  142  A    between atoms: _362  and  _363
REMARK  143  A    between atoms: _362  and  _365
REMARK  144  A    between atoms: _365  and  _366
REMARK  145  A    between atoms: _366  and  _367
REMARK  146  A    between atoms: _367  and  _368
REMARK  147  A    between atoms: _368  and  _369
REMARK  148  A    between atoms: _373  and  _375
REMARK  149  A    between atoms: _375  and  _376
REMARK  150  A    between atoms: _375  and  _378
REMARK  151  A    between atoms: _378  and  _379
REMARK  152  A    between atoms: _390  and  _391
REMARK  153  A    between atoms: _396  and  _398
REMARK  154  A    between atoms: _398  and  _399
REMARK  155  A    between atoms: _401  and  _403
REMARK  156  A    between atoms: _403  and  _404
REMARK  157  A    between atoms: _403  and  _406
REMARK  158  A    between atoms: _406  and  _407
REMARK  159  A    between atoms: _410  and  _412
REMARK  160  A    between atoms: _412  and  _413
REMARK  161  A    between atoms: _412  and  _415
REMARK  162  A    between atoms: _415  and  _416
REMARK  163  A    between atoms: _418  and  _420
REMARK  164  A    between atoms: _420  and  _421
REMARK  165  A    between atoms: _420  and  _423
REMARK  166  A    between atoms: _423  and  _424
REMARK  167  A    between atoms: _429  and  _430
REMARK  168  A    between atoms: _432  and  _434
REMARK  169  A    between atoms: _434  and  _435
REMARK  170  A    between atoms: _434  and  _437
REMARK  171  A    between atoms: _437  and  _438
REMARK  172  A    between atoms: _444  and  _446
REMARK  173  A    between atoms: _446  and  _447
REMARK  174  A    between atoms: _446  and  _449
REMARK  175  A    between atoms: _449  and  _450
REMARK  176  A    between atoms: _450  and  _451
REMARK  177  A    between atoms: _454  and  _456
REMARK  178  A    between atoms: _456  and  _457
REMARK  179  A    between atoms: _456  and  _459
REMARK  180  A    between atoms: _459  and  _460
REMARK  181  A    between atoms: _460  and  _461
REMARK  182  A    between atoms: _463  and  _465
REMARK  183  A    between atoms: _465  and  _466
REMARK  184  A    between atoms: _465  and  _468
REMARK  185  A    between atoms: _468  and  _469
REMARK  186  A    between atoms: _479  and  _481
REMARK  187  A    between atoms: _481  and  _482
REMARK  188  A    between atoms: _481  and  _484
REMARK  189  A    between atoms: _484  and  _485
REMARK  190  A    between atoms: _495  and  _497
REMARK  191  A    between atoms: _497  and  _498
REMARK  192  A    between atoms: _497  and  _500
REMARK  193  A    between atoms: _500  and  _501
REMARK  194  A    between atoms: _506  and  _508
REMARK  195  A    between atoms: _508  and  _509
REMARK  196  A    between atoms: _508  and  _511
REMARK  197  A    between atoms: _511  and  _512
REMARK  198  A    between atoms: _515  and  _517
REMARK  199  A    between atoms: _517  and  _518
REMARK  200  A    between atoms: _521  and  _523
REMARK  201  A    between atoms: _523  and  _524
REMARK  202  A    between atoms: _523  and  _526
REMARK  203  A    between atoms: _526  and  _527
REMARK  204  A    between atoms: _532  and  _533
REMARK  205  A    between atoms: _535  and  _537
REMARK  206  A    between atoms: _537  and  _538
REMARK  207  A    between atoms: _537  and  _540
REMARK  208  A    between atoms: _540  and  _541
REMARK  209  A    between atoms: _551  and  _553
REMARK  210  A    between atoms: _553  and  _554
REMARK  211  A    between atoms: _553  and  _556
REMARK  212  A    between atoms: _556  and  _557
REMARK  213  A    between atoms: _562  and  _564
REMARK  214  A    between atoms: _564  and  _565
REMARK  215  A    between atoms: _567  and  _569
REMARK  216  A    between atoms: _569  and  _570
REMARK  217  A    between atoms: _569  and  _572
REMARK  218  A    between atoms: _575  and  _577
REMARK  219  A    between atoms: _577  and  _578
REMARK  220  A    between atoms: _577  and  _580
REMARK  221  A    between atoms: _580  and  _581
REMARK  222  A    between atoms: _587  and  _589
REMARK  223  A    between atoms: _589  and  _590
REMARK  224  A    between atoms: _592  and  _594
REMARK  225  A    between atoms: _594  and  _595
REMARK  226  A    between atoms: _597  and  _599
REMARK  227  A    between atoms: _599  and  _600
REMARK  228  A    between atoms: _599  and  _602
REMARK  229  A    between atoms: _602  and  _603
REMARK  230  A    between atoms: _606  and  _608
REMARK  231  A    between atoms: _608  and  _609
REMARK  232  A    between atoms: _608  and  _611
REMARK  233  A    between atoms: _611  and  _612
REMARK  234  A    between atoms: _615  and  _617
REMARK  235  A    between atoms: _617  and  _618
REMARK  236  A    between atoms: _617  and  _620
REMARK  237  A    between atoms: _620  and  _621
REMARK  238  A    between atoms: _624  and  _626
REMARK  239  A    between atoms: _626  and  _627
REMARK  240  A    between atoms: _626  and  _629
REMARK  241  A    between atoms: _629  and  _630
REMARK  242  A    between atoms: _630  and  _631
REMARK                            x       y       z     vdW  Elec       q    Type
REMARK                         _______ _______ _______ _____ _____    ______ ____
ROOT
ATOM      1  O   HOH     1      -1.956  50.188  99.107  0.00  0.00    +0.000 OA
ENDROOT
TORSDOF 0
REMARK  Name = ../refined-set-2016/1k1y/1k1y_pocket.pdb
REMARK  242 active torsions:
REMARK  status: ('A' for Active; 'I' for Inactive)
REMARK    1  A    between atoms: _1  and  _3
REMARK    2  A    between atoms: _3  and  _4
REMARK    3  A    between atoms: _3  and  _6
REMARK    4  A    between atoms: _6  and  _7
REMARK    5  A    between atoms: _12  and  _14
REMARK    6  A    between atoms: _14  and  _15
REMARK    7  A    between atoms: _14  and  _17
REMARK    8  A    between atoms: _17  and  _18
REMARK    9  A    between atoms: _23  and  _25
REMARK   10  A    between atoms: _25  and  _26
REMARK   11  A    between atoms: _25  and  _28
REMARK   12  A    between atoms: _28  and  _29
REMARK   13  A    between atoms: _34  and  _36
REMARK   14  A    between atoms: _36  and  _37
REMARK   15  A    between atoms: _36  and  _39
REMARK   16  A    between atoms: _39  and  _40
REMARK   17  A    between atoms: _40  and  _41
REMARK   18  A    between atoms: _47  and  _48
REMARK   19  A    between atoms: _53  and  _55
REMARK   20  A    between atoms: _55  and  _56
REMARK   21  A    between atoms: _55  and  _58
REMARK   22  A    between atoms: _58  and  _59
REMARK   23  A    between atoms: _64  and  _66
REMARK   24  A    between atoms: _66  and  _67
REMARK   25  A    between atoms: _66  and  _69
REMARK   26  A    between atoms: _69  and  _70
REMARK   27  A    between atoms: _75  and  _76
REMARK   28  A    between atoms: _78  and  _80
REMARK   29  A    between atoms: _80  and  _81
REMARK   30  A    between atoms: _80  and  _83
REMARK   31  A    between atoms: _83  and  _84
REMARK   32  A    between atoms: _89  and  _91
REMARK   33  A    between atoms: _91  and  _92
REMARK   34  A    between atoms: _91  and  _94
REMARK   35  A    between atoms: _94  and  _95
REMARK   36  A    between atoms: _95  and  _96
REMARK   37  A    between atoms: _99  and  _101
REMARK   38  A    between atoms: _101  and  _102
REMARK   39  A    between atoms: _101  and  _104
REMARK   40  A    between atoms: _104  and  _105
REMARK   41  A    between atoms: _115  and  _117
REMARK   42  A    between atoms: _117  and  _118
REMARK   43  A    between atoms: _117  and  _120
REMARK   44  A    between atoms: _120  and  _121
REMARK   45  A    between atoms: _124  and  _126
REMARK   46  A    between atoms: _126  and  _127
REMARK   47  A    between atoms: _126  and  _129
REMARK   48  A    between atoms: _129  and  _130
REMARK   49  A    between atoms: _133  and  _135
REMARK   50  A    between atoms: _135  and  _136
REMARK   51  A    between atoms: _135  and  _138
REMARK   52  A    between atoms: _138  and  _139
REMARK   53  A    between atoms: _139  and  _140
REMARK   54  A    between atoms: _143  and  _145
REMARK   55  A    between atoms: _145  and  _146
REMARK   56  A    between atoms: _145  and  _148
REMARK   57  A    between atoms: _148  and  _149
REMARK   58  A    between atoms: _149  and  _150
REMARK   59  A    between atoms: _150  and  _151
REMARK   60  A    between atoms: _160  and  _162
REMARK   61  A    between atoms: _162  and  _163
REMARK   62  A    between atoms: _162  and  _165
REMARK   63  A    between atoms: _165  and  _166
REMARK   64  A    between atoms: _169  and  _171
REMARK   65  A    between atoms: _171  and  _172
REMARK   66  A    between atoms: _171  and  _174
REMARK   67  A    between atoms: _174  and  _175
REMARK   68  A    between atoms: _178  and  _180
REMARK   69  A    between atoms: _180  and  _181
REMARK   70  A    between atoms: _180  and  _183
REMARK   71  A    between atoms: _183  and  _184
REMARK   72  A    between atoms: _187  and  _189
REMARK   73  A    between atoms: _189  and  _190
REMARK   74  A    between atoms: _189  and  _192
REMARK   75  A    between atoms: _192  and  _193
REMARK   76  A    between atoms: _193  and  _194
REMARK   77  A    between atoms: _197  and  _199
REMARK   78  A    between atoms: _199  and  _200
REMARK   79  A    between atoms: _199  and  _202
REMARK   80  A    between atoms: _202  and  _203
REMARK   81  A    between atoms: _203  and  _204
REMARK   82  A    between atoms: _204  and  _205
REMARK   83  A    between atoms: _205  and  _206
REMARK   84  A    between atoms: _210  and  _212
REMARK   85  A    between atoms: _212  and  _213
REMARK   86  A    between atoms: _212  and  _215
REMARK   87  A    between atoms: _215  and  _216
REMARK   88  A    between atoms: _219  and  _221
REMARK   89  A    between atoms: _221  and  _222
REMARK   90  A    between atoms: _221  and  _224
REMARK   91  A    between atoms: _224  and  _225
REMARK   92  A    between atoms: _225  and  _226
REMARK   93  A    between atoms: _226  and  _227
REMARK   94  A    between atoms: _236  and  _238
REMARK   95  A    between atoms: _238  and  _239
REMARK   96  A    between atoms: _238  and  _241
REMARK   97  A    between atoms: _241  and  _242
REMARK   98  A    between atoms: _247  and  _248
REMARK   99  A    between atoms: _250  and  _252
REMARK  100  A    between atoms: _252  and  _253
REMARK  101  A    between atoms: _252  and  _255
REMARK  102  A    between atoms: _255  and  _256
REMARK  103  A    between atoms: _259  and  _261
REMARK  104  A    between atoms: _261  and  _262
REMARK  105  A    between atoms: _261  and  _264
REMARK  106  A    between atoms: _264  and  _265
REMARK  107  A    between atoms: _269  and  _270
REMARK  108  A    between atoms: _275  and  _277
REMARK  109  A    between atoms: _277  and  _278
REMARK  110  A    between atoms: _277  and  _280
REMARK  111  A    between atoms: _280  and  _281
REMARK  112  A    between atoms: _287  and  _289
REMARK  113  A    between atoms: _289  and  _290
REMARK  114  A    between atoms: _289  and  _292
REMARK  115  A    between atoms: _292  and  _293
REMARK  116  A    between atoms: _293  and  _294
REMARK  117  A    between atoms: _294  and  _295
REMARK  118  A    between atoms: _304  and  _306
REMARK  119  A    between atoms: _306  and  _307
REMARK  120  A    between atoms: _306  and  _309
REMARK  121  A    between atoms: _309  and  _310
REMARK  122  A    between atoms: _316  and  _318
REMARK  123  A    between atoms: _318  and  _319
REMARK  124  A    between atoms: _318  and  _321
REMARK  125  A    between atoms: _321  and  _322
REMARK  126  A    between atoms: _327  and  _329
REMARK  127  A    between atoms: _329  and  _330
REMARK  128  A    between atoms: _329  and  _332
REMARK  129  A    between atoms: _332  and  _333
REMARK  130  A    between atoms: _336  and  _338
REMARK  131  A    between atoms: _338  and  _339
REMARK  132  A    between atoms: _338  and  _341
REMARK  133  A    between atoms: _341  and  _342
REMARK  134  A    between atoms: _345  and  _347
REMARK  135  A    between atoms: _347  and  _348
REMARK  136  A    between atoms: _350  and  _352
REMARK  137  A    between atoms: _352  and  _353
REMARK  138  A    between atoms: _352  and  _355
REMARK  139  A    between atoms: _355  and  _356
REMARK  140  A    between atoms: _356  and  _357
REMARK  141  A    between atoms: _360  and  _362
REMARK  142  A    between atoms: _362  and  _363
REMARK  143  A    between atoms: _362  and  _365
REMARK  144  A    between atoms: _365  and  _366
REMARK  145  A    between atoms: _366  and  _367
REMARK  146  A    between atoms: _367  and  _368
REMARK  147  A    between atoms: _368  and  _369
REMARK  148  A    between atoms: _373  and  _375
REMARK  149  A    between atoms: _375  and  _376
REMARK  150  A    between atoms: _375  and  _378
REMARK  151  A    between atoms: _378  and  _379
REMARK  152  A    between atoms: _390  and  _391
REMARK  153  A    between atoms: _396  and  _398
REMARK  154  A    between atoms: _398  and  _399
REMARK  155  A    between atoms: _401  and  _403
REMARK  156  A    between atoms: _403  and  _404
REMARK  157  A    between atoms: _403  and  _406
REMARK  158  A    between atoms: _406  and  _407
REMARK  159  A    between atoms: _410  and  _412
REMARK  160  A    between atoms: _412  and  _413
REMARK  161  A    between atoms: _412  and  _415
REMARK  162  A    between atoms: _415  and  _416
REMARK  163  A    between atoms: _418  and  _420
REMARK  164  A    between atoms: _420  and  _421
REMARK  165  A    between atoms: _420  and  _423
REMARK  166  A    between atoms: _423  and  _424
REMARK  167  A    between atoms: _429  and  _430
REMARK  168  A    between atoms: _432  and  _434
REMARK  169  A    between atoms: _434  and  _435
REMARK  170  A    between atoms: _434  and  _437
REMARK  171  A    between atoms: _437  and  _438
REMARK  172  A    between atoms: _444  and  _446
REMARK  173  A    between atoms: _446  and  _447
REMARK  174  A    between atoms: _446  and  _449
REMARK  175  A    between atoms: _449  and  _450
REMARK  176  A    between atoms: _450  and  _451
REMARK  177  A    between atoms: _454  and  _456
REMARK  178  A    between atoms: _456  and  _457
REMARK  179  A    between atoms: _456  and  _459
REMARK  180  A    between atoms: _459  and  _460
REMARK  181  A    between atoms: _460  and  _461
REMARK  182  A    between atoms: _463  and  _465
REMARK  183  A    between atoms: _465  and  _466
REMARK  184  A    between atoms: _465  and  _468
REMARK  185  A    between atoms: _468  and  _469
REMARK  186  A    between atoms: _479  and  _481
REMARK  187  A    between atoms: _481  and  _482
REMARK  188  A    between atoms: _481  and  _484
REMARK  189  A    between atoms: _484  and  _485
REMARK  190  A    between atoms: _495  and  _497
REMARK  191  A    between atoms: _497  and  _498
REMARK  192  A    between atoms: _497  and  _500
REMARK  193  A    between atoms: _500  and  _501
REMARK  194  A    between atoms: _506  and  _508
REMARK  195  A    between atoms: _508  and  _509
REMARK  196  A    between atoms: _508  and  _511
REMARK  197  A    between atoms: _511  and  _512
REMARK  198  A    between atoms: _515  and  _517
REMARK  199  A    between atoms: _517  and  _518
REMARK  200  A    between atoms: _521  and  _523
REMARK  201  A    between atoms: _523  and  _524
REMARK  202  A    between atoms: _523  and  _526
REMARK  203  A    between atoms: _526  and  _527
REMARK  204  A    between atoms: _532  and  _533
REMARK  205  A    between atoms: _535  and  _537
REMARK  206  A    between atoms: _537  and  _538
REMARK  207  A    between atoms: _537  and  _540
REMARK  208  A    between atoms: _540  and  _541
REMARK  209  A    between atoms: _551  and  _553
REMARK  210  A    between atoms: _553  and  _554
REMARK  211  A    between atoms: _553  and  _556
REMARK  212  A    between atoms: _556  and  _557
REMARK  213  A    between atoms: _562  and  _564
REMARK  214  A    between atoms: _564  and  _565
REMARK  215  A    between atoms: _567  and  _569
REMARK  216  A    between atoms: _569  and  _570
REMARK  217  A    between atoms: _569  and  _572
REMARK  218  A    between atoms: _575  and  _577
REMARK  219  A    between atoms: _577  and  _578
REMARK  220  A    between atoms: _577  and  _580
REMARK  221  A    between atoms: _580  and  _581
REMARK  222  A    between atoms: _587  and  _589
REMARK  223  A    between atoms: _589  and  _590
REMARK  224  A    between atoms: _592  and  _594
REMARK  225  A    between atoms: _594  and  _595
REMARK  226  A    between atoms: _597  and  _599
REMARK  227  A    between atoms: _599  and  _600
REMARK  228  A    between atoms: _599  and  _602
REMARK  229  A    between atoms: _602  and  _603
REMARK  230  A    between atoms: _606  and  _608
REMARK  231  A    between atoms: _608  and  _609
REMARK  232  A    between atoms: _608  and  _611
REMARK  233  A    between atoms: _611  and  _612
REMARK  234  A    between atoms: _615  and  _617
REMARK  235  A    between atoms: _617  and  _618
REMARK  236  A    between atoms: _617  and  _620
REMARK  237  A    between atoms: _620  and  _621
REMARK  238  A    between atoms: _624  and  _626
REMARK  239  A    between atoms: _626  and  _627
REMARK  240  A    between atoms: _626  and  _629
REMARK  241  A    between atoms: _629  and  _630
REMARK  242  A    between atoms: _630  and  _631
REMARK                            x       y       z     vdW  Elec       q    Type
REMARK                         _______ _______ _______ _____ _____    ______ ____
ROOT
ATOM      1  O   HOH     1      -3.211  58.154  97.188  0.00  0.00    +0.000 OA
ENDROOT
TORSDOF 0
REMARK  Name = ../refined-set-2016/1k1y/1k1y_pocket.pdb
REMARK  242 active torsions:
REMARK  status: ('A' for Active; 'I' for Inactive)
REMARK    1  A    between atoms: _1  and  _3
REMARK    2  A    between atoms: _3  and  _4
REMARK    3  A    between atoms: _3  and  _6
REMARK    4  A    between atoms: _6  and  _7
REMARK    5  A    between atoms: _12  and  _14
REMARK    6  A    between atoms: _14  and  _15
REMARK    7  A    between atoms: _14  and  _17
REMARK    8  A    between atoms: _17  and  _18
REMARK    9  A    between atoms: _23  and  _25
REMARK   10  A    between atoms: _25  and  _26
REMARK   11  A    between atoms: _25  and  _28
REMARK   12  A    between atoms: _28  and  _29
REMARK   13  A    between atoms: _34  and  _36
REMARK   14  A    between atoms: _36  and  _37
REMARK   15  A    between atoms: _36  and  _39
REMARK   16  A    between atoms: _39  and  _40
REMARK   17  A    between atoms: _40  and  _41
REMARK   18  A    between atoms: _47  and  _48
REMARK   19  A    between atoms: _53  and  _55
REMARK   20  A    between atoms: _55  and  _56
REMARK   21  A    between atoms: _55  and  _58
REMARK   22  A    between atoms: _58  and  _59
REMARK   23  A    between atoms: _64  and  _66
REMARK   24  A    between atoms: _66  and  _67
REMARK   25  A    between atoms: _66  and  _69
REMARK   26  A    between atoms: _69  and  _70
REMARK   27  A    between atoms: _75  and  _76
REMARK   28  A    between atoms: _78  and  _80
REMARK   29  A    between atoms: _80  and  _81
REMARK   30  A    between atoms: _80  and  _83
REMARK   31  A    between atoms: _83  and  _84
REMARK   32  A    between atoms: _89  and  _91
REMARK   33  A    between atoms: _91  and  _92
REMARK   34  A    between atoms: _91  and  _94
REMARK   35  A    between atoms: _94  and  _95
REMARK   36  A    between atoms: _95  and  _96
REMARK   37  A    between atoms: _99  and  _101
REMARK   38  A    between atoms: _101  and  _102
REMARK   39  A    between atoms: _101  and  _104
REMARK   40  A    between atoms: _104  and  _105
REMARK   41  A    between atoms: _115  and  _117
REMARK   42  A    between atoms: _117  and  _118
REMARK   43  A    between atoms: _117  and  _120
REMARK   44  A    between atoms: _120  and  _121
REMARK   45  A    between atoms: _124  and  _126
REMARK   46  A    between atoms: _126  and  _127
REMARK   47  A    between atoms: _126  and  _129
REMARK   48  A    between atoms: _129  and  _130
REMARK   49  A    between atoms: _133  and  _135
REMARK   50  A    between atoms: _135  and  _136
REMARK   51  A    between atoms: _135  and  _138
REMARK   52  A    between atoms: _138  and  _139
REMARK   53  A    between atoms: _139  and  _140
REMARK   54  A    between atoms: _143  and  _145
REMARK   55  A    between atoms: _145  and  _146
REMARK   56  A    between atoms: _145  and  _148
REMARK   57  A    between atoms: _148  and  _149
REMARK   58  A    between atoms: _149  and  _150
REMARK   59  A    between atoms: _150  and  _151
REMARK   60  A    between atoms: _160  and  _162
REMARK   61  A    between atoms: _162  and  _163
REMARK   62  A    between atoms: _162  and  _165
REMARK   63  A    between atoms: _165  and  _166
REMARK   64  A    between atoms: _169  and  _171
REMARK   65  A    between atoms: _171  and  _172
REMARK   66  A    between atoms: _171  and  _174
REMARK   67  A    between atoms: _174  and  _175
REMARK   68  A    between atoms: _178  and  _180
REMARK   69  A    between atoms: _180  and  _181
REMARK   70  A    between atoms: _180  and  _183
REMARK   71  A    between atoms: _183  and  _184
REMARK   72  A    between atoms: _187  and  _189
REMARK   73  A    between atoms: _189  and  _190
REMARK   74  A    between atoms: _189  and  _192
REMARK   75  A    between atoms: _192  and  _193
REMARK   76  A    between atoms: _193  and  _194
REMARK   77  A    between atoms: _197  and  _199
REMARK   78  A    between atoms: _199  and  _200
REMARK   79  A    between atoms: _199  and  _202
REMARK   80  A    between atoms: _202  and  _203
REMARK   81  A    between atoms: _203  and  _204
REMARK   82  A    between atoms: _204  and  _205
REMARK   83  A    between atoms: _205  and  _206
REMARK   84  A    between atoms: _210  and  _212
REMARK   85  A    between atoms: _212  and  _213
REMARK   86  A    between atoms: _212  and  _215
REMARK   87  A    between atoms: _215  and  _216
REMARK   88  A    between atoms: _219  and  _221
REMARK   89  A    between atoms: _221  and  _222
REMARK   90  A    between atoms: _221  and  _224
REMARK   91  A    between atoms: _224  and  _225
REMARK   92  A    between atoms: _225  and  _226
REMARK   93  A    between atoms: _226  and  _227
REMARK   94  A    between atoms: _236  and  _238
REMARK   95  A    between atoms: _238  and  _239
REMARK   96  A    between atoms: _238  and  _241
REMARK   97  A    between atoms: _241  and  _242
REMARK   98  A    between atoms: _247  and  _248
REMARK   99  A    between atoms: _250  and  _252
REMARK  100  A    between atoms: _252  and  _253
REMARK  101  A    between atoms: _252  and  _255
REMARK  102  A    between atoms: _255  and  _256
REMARK  103  A    between atoms: _259  and  _261
REMARK  104  A    between atoms: _261  and  _262
REMARK  105  A    between atoms: _261  and  _264
REMARK  106  A    between atoms: _264  and  _265
REMARK  107  A    between atoms: _269  and  _270
REMARK  108  A    between atoms: _275  and  _277
REMARK  109  A    between atoms: _277  and  _278
REMARK  110  A    between atoms: _277  and  _280
REMARK  111  A    between atoms: _280  and  _281
REMARK  112  A    between atoms: _287  and  _289
REMARK  113  A    between atoms: _289  and  _290
REMARK  114  A    between atoms: _289  and  _292
REMARK  115  A    between atoms: _292  and  _293
REMARK  116  A    between atoms: _293  and  _294
REMARK  117  A    between atoms: _294  and  _295
REMARK  118  A    between atoms: _304  and  _306
REMARK  119  A    between atoms: _306  and  _307
REMARK  120  A    between atoms: _306  and  _309
REMARK  121  A    between atoms: _309  and  _310
REMARK  122  A    between atoms: _316  and  _318
REMARK  123  A    between atoms: _318  and  _319
REMARK  124  A    between atoms: _318  and  _321
REMARK  125  A    between atoms: _321  and  _322
REMARK  126  A    between atoms: _327  and  _329
REMARK  127  A    between atoms: _329  and  _330
REMARK  128  A    between atoms: _329  and  _332
REMARK  129  A    between atoms: _332  and  _333
REMARK  130  A    between atoms: _336  and  _338
REMARK  131  A    between atoms: _338  and  _339
REMARK  132  A    between atoms: _338  and  _341
REMARK  133  A    between atoms: _341  and  _342
REMARK  134  A    between atoms: _345  and  _347
REMARK  135  A    between atoms: _347  and  _348
REMARK  136  A    between atoms: _350  and  _352
REMARK  137  A    between atoms: _352  and  _353
REMARK  138  A    between atoms: _352  and  _355
REMARK  139  A    between atoms: _355  and  _356
REMARK  140  A    between atoms: _356  and  _357
REMARK  141  A    between atoms: _360  and  _362
REMARK  142  A    between atoms: _362  and  _363
REMARK  143  A    between atoms: _362  and  _365
REMARK  144  A    between atoms: _365  and  _366
REMARK  145  A    between atoms: _366  and  _367
REMARK  146  A    between atoms: _367  and  _368
REMARK  147  A    between atoms: _368  and  _369
REMARK  148  A    between atoms: _373  and  _375
REMARK  149  A    between atoms: _375  and  _376
REMARK  150  A    between atoms: _375  and  _378
REMARK  151  A    between atoms: _378  and  _379
REMARK  152  A    between atoms: _390  and  _391
REMARK  153  A    between atoms: _396  and  _398
REMARK  154  A    between atoms: _398  and  _399
REMARK  155  A    between atoms: _401  and  _403
REMARK  156  A    between atoms: _403  and  _404
REMARK  157  A    between atoms: _403  and  _406
REMARK  158  A    between atoms: _406  and  _407
REMARK  159  A    between atoms: _410  and  _412
REMARK  160  A    between atoms: _412  and  _413
REMARK  161  A    between atoms: _412  and  _415
REMARK  162  A    between atoms: _415  and  _416
REMARK  163  A    between atoms: _418  and  _420
REMARK  164  A    between atoms: _420  and  _421
REMARK  165  A    between atoms: _420  and  _423
REMARK  166  A    between atoms: _423  and  _424
REMARK  167  A    between atoms: _429  and  _430
REMARK  168  A    between atoms: _432  and  _434
REMARK  169  A    between atoms: _434  and  _435
REMARK  170  A    between atoms: _434  and  _437
REMARK  171  A    between atoms: _437  and  _438
REMARK  172  A    between atoms: _444  and  _446
REMARK  173  A    between atoms: _446  and  _447
REMARK  174  A    between atoms: _446  and  _449
REMARK  175  A    between atoms: _449  and  _450
REMARK  176  A    between atoms: _450  and  _451
REMARK  177  A    between atoms: _454  and  _456
REMARK  178  A    between atoms: _456  and  _457
REMARK  179  A    between atoms: _456  and  _459
REMARK  180  A    between atoms: _459  and  _460
REMARK  181  A    between atoms: _460  and  _461
REMARK  182  A    between atoms: _463  and  _465
REMARK  183  A    between atoms: _465  and  _466
REMARK  184  A    between atoms: _465  and  _468
REMARK  185  A    between atoms: _468  and  _469
REMARK  186  A    between atoms: _479  and  _481
REMARK  187  A    between atoms: _481  and  _482
REMARK  188  A    between atoms: _481  and  _484
REMARK  189  A    between atoms: _484  and  _485
REMARK  190  A    between atoms: _495  and  _497
REMARK  191  A    between atoms: _497  and  _498
REMARK  192  A    between atoms: _497  and  _500
REMARK  193  A    between atoms: _500  and  _501
REMARK  194  A    between atoms: _506  and  _508
REMARK  195  A    between atoms: _508  and  _509
REMARK  196  A    between atoms: _508  and  _511
REMARK  197  A    between atoms: _511  and  _512
REMARK  198  A    between atoms: _515  and  _517
REMARK  199  A    between atoms: _517  and  _518
REMARK  200  A    between atoms: _521  and  _523
REMARK  201  A    between atoms: _523  and  _524
REMARK  202  A    between atoms: _523  and  _526
REMARK  203  A    between atoms: _526  and  _527
REMARK  204  A    between atoms: _532  and  _533
REMARK  205  A    between atoms: _535  and  _537
REMARK  206  A    between atoms: _537  and  _538
REMARK  207  A    between atoms: _537  and  _540
REMARK  208  A    between atoms: _540  and  _541
REMARK  209  A    between atoms: _551  and  _553
REMARK  210  A    between atoms: _553  and  _554
REMARK  211  A    between atoms: _553  and  _556
REMARK  212  A    between atoms: _556  and  _557
REMARK  213  A    between atoms: _562  and  _564
REMARK  214  A    between atoms: _564  and  _565
REMARK  215  A    between atoms: _567  and  _569
REMARK  216  A    between atoms: _569  and  _570
REMARK  217  A    between atoms: _569  and  _572
REMARK  218  A    between atoms: _575  and  _577
REMARK  219  A    between atoms: _577  and  _578
REMARK  220  A    between atoms: _577  and  _580
REMARK  221  A    between atoms: _580  and  _581
REMARK  222  A    between atoms: _587  and  _589
REMARK  223  A    between atoms: _589  and  _590
REMARK  224  A    between atoms: _592  and  _594
REMARK  225  A    between atoms: _594  and  _595
REMARK  226  A    between atoms: _597  and  _599
REMARK  227  A    between atoms: _599  and  _600
REMARK  228  A    between atoms: _599  and  _602
REMARK  229  A    between atoms: _602  and  _603
REMARK  230  A    between atoms: _606  and  _608
REMARK  231  A    between atoms: _608  and  _609
REMARK  232  A    between atoms: _608  and  _611
REMARK  233  A    between atoms: _611  and  _612
REMARK  234  A    between atoms: _615  and  _617
REMARK  235  A    between atoms: _617  and  _618
REMARK  236  A    between atoms: _617  and  _620
REMARK  237  A    between atoms: _620  and  _621
REMARK  238  A    between atoms: _624  and  _626
REMARK  239  A    between atoms: _626  and  _627
REMARK  240  A    between atoms: _626  and  _629
REMARK  241  A    between atoms: _629  and  _630
REMARK  242  A    between atoms: _630  and  _631
REMARK                            x       y       z     vdW  Elec       q    Type
REMARK                         _______ _______ _______ _____ _____    ______ ____
ROOT
ATOM      1  O   HOH     1       1.078  48.921  97.793  0.00  0.00    +0.000 OA
ENDROOT
TORSDOF 0
REMARK  Name = ../refined-set-2016/1k1y/1k1y_pocket.pdb
REMARK  242 active torsions:
REMARK  status: ('A' for Active; 'I' for Inactive)
REMARK    1  A    between atoms: _1  and  _3
REMARK    2  A    between atoms: _3  and  _4
REMARK    3  A    between atoms: _3  and  _6
REMARK    4  A    between atoms: _6  and  _7
REMARK    5  A    between atoms: _12  and  _14
REMARK    6  A    between atoms: _14  and  _15
REMARK    7  A    between atoms: _14  and  _17
REMARK    8  A    between atoms: _17  and  _18
REMARK    9  A    between atoms: _23  and  _25
REMARK   10  A    between atoms: _25  and  _26
REMARK   11  A    between atoms: _25  and  _28
REMARK   12  A    between atoms: _28  and  _29
REMARK   13  A    between atoms: _34  and  _36
REMARK   14  A    between atoms: _36  and  _37
REMARK   15  A    between atoms: _36  and  _39
REMARK   16  A    between atoms: _39  and  _40
REMARK   17  A    between atoms: _40  and  _41
REMARK   18  A    between atoms: _47  and  _48
REMARK   19  A    between atoms: _53  and  _55
REMARK   20  A    between atoms: _55  and  _56
REMARK   21  A    between atoms: _55  and  _58
REMARK   22  A    between atoms: _58  and  _59
REMARK   23  A    between atoms: _64  and  _66
REMARK   24  A    between atoms: _66  and  _67
REMARK   25  A    between atoms: _66  and  _69
REMARK   26  A    between atoms: _69  and  _70
REMARK   27  A    between atoms: _75  and  _76
REMARK   28  A    between atoms: _78  and  _80
REMARK   29  A    between atoms: _80  and  _81
REMARK   30  A    between atoms: _80  and  _83
REMARK   31  A    between atoms: _83  and  _84
REMARK   32  A    between atoms: _89  and  _91
REMARK   33  A    between atoms: _91  and  _92
REMARK   34  A    between atoms: _91  and  _94
REMARK   35  A    between atoms: _94  and  _95
REMARK   36  A    between atoms: _95  and  _96
REMARK   37  A    between atoms: _99  and  _101
REMARK   38  A    between atoms: _101  and  _102
REMARK   39  A    between atoms: _101  and  _104
REMARK   40  A    between atoms: _104  and  _105
REMARK   41  A    between atoms: _115  and  _117
REMARK   42  A    between atoms: _117  and  _118
REMARK   43  A    between atoms: _117  and  _120
REMARK   44  A    between atoms: _120  and  _121
REMARK   45  A    between atoms: _124  and  _126
REMARK   46  A    between atoms: _126  and  _127
REMARK   47  A    between atoms: _126  and  _129
REMARK   48  A    between atoms: _129  and  _130
REMARK   49  A    between atoms: _133  and  _135
REMARK   50  A    between atoms: _135  and  _136
REMARK   51  A    between atoms: _135  and  _138
REMARK   52  A    between atoms: _138  and  _139
REMARK   53  A    between atoms: _139  and  _140
REMARK   54  A    between atoms: _143  and  _145
REMARK   55  A    between atoms: _145  and  _146
REMARK   56  A    between atoms: _145  and  _148
REMARK   57  A    between atoms: _148  and  _149
REMARK   58  A    between atoms: _149  and  _150
REMARK   59  A    between atoms: _150  and  _151
REMARK   60  A    between atoms: _160  and  _162
REMARK   61  A    between atoms: _162  and  _163
REMARK   62  A    between atoms: _162  and  _165
REMARK   63  A    between atoms: _165  and  _166
REMARK   64  A    between atoms: _169  and  _171
REMARK   65  A    between atoms: _171  and  _172
REMARK   66  A    between atoms: _171  and  _174
REMARK   67  A    between atoms: _174  and  _175
REMARK   68  A    between atoms: _178  and  _180
REMARK   69  A    between atoms: _180  and  _181
REMARK   70  A    between atoms: _180  and  _183
REMARK   71  A    between atoms: _183  and  _184
REMARK   72  A    between atoms: _187  and  _189
REMARK   73  A    between atoms: _189  and  _190
REMARK   74  A    between atoms: _189  and  _192
REMARK   75  A    between atoms: _192  and  _193
REMARK   76  A    between atoms: _193  and  _194
REMARK   77  A    between atoms: _197  and  _199
REMARK   78  A    between atoms: _199  and  _200
REMARK   79  A    between atoms: _199  and  _202
REMARK   80  A    between atoms: _202  and  _203
REMARK   81  A    between atoms: _203  and  _204
REMARK   82  A    between atoms: _204  and  _205
REMARK   83  A    between atoms: _205  and  _206
REMARK   84  A    between atoms: _210  and  _212
REMARK   85  A    between atoms: _212  and  _213
REMARK   86  A    between atoms: _212  and  _215
REMARK   87  A    between atoms: _215  and  _216
REMARK   88  A    between atoms: _219  and  _221
REMARK   89  A    between atoms: _221  and  _222
REMARK   90  A    between atoms: _221  and  _224
REMARK   91  A    between atoms: _224  and  _225
REMARK   92  A    between atoms: _225  and  _226
REMARK   93  A    between atoms: _226  and  _227
REMARK   94  A    between atoms: _236  and  _238
REMARK   95  A    between atoms: _238  and  _239
REMARK   96  A    between atoms: _238  and  _241
REMARK   97  A    between atoms: _241  and  _242
REMARK   98  A    between atoms: _247  and  _248
REMARK   99  A    between atoms: _250  and  _252
REMARK  100  A    between atoms: _252  and  _253
REMARK  101  A    between atoms: _252  and  _255
REMARK  102  A    between atoms: _255  and  _256
REMARK  103  A    between atoms: _259  and  _261
REMARK  104  A    between atoms: _261  and  _262
REMARK  105  A    between atoms: _261  and  _264
REMARK  106  A    between atoms: _264  and  _265
REMARK  107  A    between atoms: _269  and  _270
REMARK  108  A    between atoms: _275  and  _277
REMARK  109  A    between atoms: _277  and  _278
REMARK  110  A    between atoms: _277  and  _280
REMARK  111  A    between atoms: _280  and  _281
REMARK  112  A    between atoms: _287  and  _289
REMARK  113  A    between atoms: _289  and  _290
REMARK  114  A    between atoms: _289  and  _292
REMARK  115  A    between atoms: _292  and  _293
REMARK  116  A    between atoms: _293  and  _294
REMARK  117  A    between atoms: _294  and  _295
REMARK  118  A    between atoms: _304  and  _306
REMARK  119  A    between atoms: _306  and  _307
REMARK  120  A    between atoms: _306  and  _309
REMARK  121  A    between atoms: _309  and  _310
REMARK  122  A    between atoms: _316  and  _318
REMARK  123  A    between atoms: _318  and  _319
REMARK  124  A    between atoms: _318  and  _321
REMARK  125  A    between atoms: _321  and  _322
REMARK  126  A    between atoms: _327  and  _329
REMARK  127  A    between atoms: _329  and  _330
REMARK  128  A    between atoms: _329  and  _332
REMARK  129  A    between atoms: _332  and  _333
REMARK  130  A    between atoms: _336  and  _338
REMARK  131  A    between atoms: _338  and  _339
REMARK  132  A    between atoms: _338  and  _341
REMARK  133  A    between atoms: _341  and  _342
REMARK  134  A    between atoms: _345  and  _347
REMARK  135  A    between atoms: _347  and  _348
REMARK  136  A    between atoms: _350  and  _352
REMARK  137  A    between atoms: _352  and  _353
REMARK  138  A    between atoms: _352  and  _355
REMARK  139  A    between atoms: _355  and  _356
REMARK  140  A    between atoms: _356  and  _357
REMARK  141  A    between atoms: _360  and  _362
REMARK  142  A    between atoms: _362  and  _363
REMARK  143  A    between atoms: _362  and  _365
REMARK  144  A    between atoms: _365  and  _366
REMARK  145  A    between atoms: _366  and  _367
REMARK  146  A    between atoms: _367  and  _368
REMARK  147  A    between atoms: _368  and  _369
REMARK  148  A    between atoms: _373  and  _375
REMARK  149  A    between atoms: _375  and  _376
REMARK  150  A    between atoms: _375  and  _378
REMARK  151  A    between atoms: _378  and  _379
REMARK  152  A    between atoms: _390  and  _391
REMARK  153  A    between atoms: _396  and  _398
REMARK  154  A    between atoms: _398  and  _399
REMARK  155  A    between atoms: _401  and  _403
REMARK  156  A    between atoms: _403  and  _404
REMARK  157  A    between atoms: _403  and  _406
REMARK  158  A    between atoms: _406  and  _407
REMARK  159  A    between atoms: _410  and  _412
REMARK  160  A    between atoms: _412  and  _413
REMARK  161  A    between atoms: _412  and  _415
REMARK  162  A    between atoms: _415  and  _416
REMARK  163  A    between atoms: _418  and  _420
REMARK  164  A    between atoms: _420  and  _421
REMARK  165  A    between atoms: _420  and  _423
REMARK  166  A    between atoms: _423  and  _424
REMARK  167  A    between atoms: _429  and  _430
REMARK  168  A    between atoms: _432  and  _434
REMARK  169  A    between atoms: _434  and  _435
REMARK  170  A    between atoms: _434  and  _437
REMARK  171  A    between atoms: _437  and  _438
REMARK  172  A    between atoms: _444  and  _446
REMARK  173  A    between atoms: _446  and  _447
REMARK  174  A    between atoms: _446  and  _449
REMARK  175  A    between atoms: _449  and  _450
REMARK  176  A    between atoms: _450  and  _451
REMARK  177  A    between atoms: _454  and  _456
REMARK  178  A    between atoms: _456  and  _457
REMARK  179  A    between atoms: _456  and  _459
REMARK  180  A    between atoms: _459  and  _460
REMARK  181  A    between atoms: _460  and  _461
REMARK  182  A    between atoms: _463  and  _465
REMARK  183  A    between atoms: _465  and  _466
REMARK  184  A    between atoms: _465  and  _468
REMARK  185  A    between atoms: _468  and  _469
REMARK  186  A    between atoms: _479  and  _481
REMARK  187  A    between atoms: _481  and  _482
REMARK  188  A    between atoms: _481  and  _484
REMARK  189  A    between atoms: _484  and  _485
REMARK  190  A    between atoms: _495  and  _497
REMARK  191  A    between atoms: _497  and  _498
REMARK  192  A    between atoms: _497  and  _500
REMARK  193  A    between atoms: _500  and  _501
REMARK  194  A    between atoms: _506  and  _508
REMARK  195  A    between atoms: _508  and  _509
REMARK  196  A    between atoms: _508  and  _511
REMARK  197  A    between atoms: _511  and  _512
REMARK  198  A    between atoms: _515  and  _517
REMARK  199  A    between atoms: _517  and  _518
REMARK  200  A    between atoms: _521  and  _523
REMARK  201  A    between atoms: _523  and  _524
REMARK  202  A    between atoms: _523  and  _526
REMARK  203  A    between atoms: _526  and  _527
REMARK  204  A    between atoms: _532  and  _533
REMARK  205  A    between atoms: _535  and  _537
REMARK  206  A    between atoms: _537  and  _538
REMARK  207  A    between atoms: _537  and  _540
REMARK  208  A    between atoms: _540  and  _541
REMARK  209  A    between atoms: _551  and  _553
REMARK  210  A    between atoms: _553  and  _554
REMARK  211  A    between atoms: _553  and  _556
REMARK  212  A    between atoms: _556  and  _557
REMARK  213  A    between atoms: _562  and  _564
REMARK  214  A    between atoms: _564  and  _565
REMARK  215  A    between atoms: _567  and  _569
REMARK  216  A    between atoms: _569  and  _570
REMARK  217  A    between atoms: _569  and  _572
REMARK  218  A    between atoms: _575  and  _577
REMARK  219  A    between atoms: _577  and  _578
REMARK  220  A    between atoms: _577  and  _580
REMARK  221  A    between atoms: _580  and  _581
REMARK  222  A    between atoms: _587  and  _589
REMARK  223  A    between atoms: _589  and  _590
REMARK  224  A    between atoms: _592  and  _594
REMARK  225  A    between atoms: _594  and  _595
REMARK  226  A    between atoms: _597  and  _599
REMARK  227  A    between atoms: _599  and  _600
REMARK  228  A    between atoms: _599  and  _602
REMARK  229  A    between atoms: _602  and  _603
REMARK  230  A    between atoms: _606  and  _608
REMARK  231  A    between atoms: _608  and  _609
REMARK  232  A    between atoms: _608  and  _611
REMARK  233  A    between atoms: _611  and  _612
REMARK  234  A    between atoms: _615  and  _617
REMARK  235  A    between atoms: _617  and  _618
REMARK  236  A    between atoms: _617  and  _620
REMARK  237  A    between atoms: _620  and  _621
REMARK  238  A    between atoms: _624  and  _626
REMARK  239  A    between atoms: _626  and  _627
REMARK  240  A    between atoms: _626  and  _629
REMARK  241  A    between atoms: _629  and  _630
REMARK  242  A    between atoms: _630  and  _631
REMARK                            x       y       z     vdW  Elec       q    Type
REMARK                         _______ _______ _______ _____ _____    ______ ____
ROOT
ATOM      1  O   HOH     1       5.324  58.864 101.090  0.00  0.00    +0.000 OA
ENDROOT
TORSDOF 0
