REMARK  Name = ../refined-set-2016/4fai/4fai_pocket.pdb
REMARK  148 active torsions:
REMARK  status: ('A' for Active; 'I' for Inactive)
REMARK    1  A    between atoms: _1  and  _3
REMARK    2  A    between atoms: _3  and  _4
REMARK    3  A    between atoms: _3  and  _6
REMARK    4  A    between atoms: _6  and  _7
REMARK    5  A    between atoms: _12  and  _14
REMARK    6  A    between atoms: _14  and  _15
REMARK    7  A    between atoms: _14  and  _17
REMARK    8  A    between atoms: _17  and  _18
REMARK    9  A    between atoms: _18  and  _19
REMARK   10  A    between atoms: _19  and  _20
REMARK   11  A    between atoms: _20  and  _21
REMARK   12  A    between atoms: _25  and  _27
REMARK   13  A    between atoms: _27  and  _28
REMARK   14  A    between atoms: _27  and  _30
REMARK   15  A    between atoms: _30  and  _31
REMARK   16  A    between atoms: _37  and  _39
REMARK   17  A    between atoms: _39  and  _40
REMARK   18  A    between atoms: _39  and  _42
REMARK   19  A    between atoms: _42  and  _43
REMARK   20  A    between atoms: _46  and  _48
REMARK   21  A    between atoms: _48  and  _49
REMARK   22  A    between atoms: _48  and  _51
REMARK   23  A    between atoms: _51  and  _52
REMARK   24  A    between atoms: _52  and  _54
REMARK   25  A    between atoms: _54  and  ZN_361
REMARK   26  A    between atoms: _55  and  _57
REMARK   27  A    between atoms: _57  and  _58
REMARK   28  A    between atoms: _57  and  _60
REMARK   29  A    between atoms: _60  and  _61
REMARK   30  A    between atoms: _63  and  _65
REMARK   31  A    between atoms: _65  and  _66
REMARK   32  A    between atoms: _65  and  _68
REMARK   33  A    between atoms: _68  and  _69
REMARK   34  A    between atoms: _69  and  _70
REMARK   35  A    between atoms: _73  and  _75
REMARK   36  A    between atoms: _75  and  _76
REMARK   37  A    between atoms: _75  and  _78
REMARK   38  A    between atoms: _78  and  _79
REMARK   39  A    between atoms: _79  and  _80
REMARK   40  A    between atoms: _80  and  _81
REMARK   41  A    between atoms: _81  and  ZN_361
REMARK   42  A    between atoms: _83  and  _85
REMARK   43  A    between atoms: _85  and  _86
REMARK   44  A    between atoms: _89  and  _91
REMARK   45  A    between atoms: _91  and  _92
REMARK   46  A    between atoms: _91  and  _94
REMARK   47  A    between atoms: _94  and  _95
REMARK   48  A    between atoms: _105  and  _107
REMARK   49  A    between atoms: _107  and  _108
REMARK   50  A    between atoms: _107  and  _110
REMARK   51  A    between atoms: _110  and  _111
REMARK   52  A    between atoms: _113  and  _115
REMARK   53  A    between atoms: _115  and  _116
REMARK   54  A    between atoms: _115  and  _118
REMARK   55  A    between atoms: _118  and  _119
REMARK   56  A    between atoms: _122  and  _124
REMARK   57  A    between atoms: _124  and  _125
REMARK   58  A    between atoms: _124  and  _127
REMARK   59  A    between atoms: _127  and  _128
REMARK   60  A    between atoms: _131  and  _133
REMARK   61  A    between atoms: _133  and  _134
REMARK   62  A    between atoms: _133  and  _136
REMARK   63  A    between atoms: _136  and  _137
REMARK   64  A    between atoms: _140  and  _142
REMARK   65  A    between atoms: _142  and  _143
REMARK   66  A    between atoms: _142  and  _145
REMARK   67  A    between atoms: _145  and  _146
REMARK   68  A    between atoms: _149  and  _151
REMARK   69  A    between atoms: _151  and  _152
REMARK   70  A    between atoms: _151  and  _154
REMARK   71  A    between atoms: _154  and  _155
REMARK   72  A    between atoms: _158  and  _160
REMARK   73  A    between atoms: _160  and  _161
REMARK   74  A    between atoms: _160  and  _163
REMARK   75  A    between atoms: _163  and  _164
REMARK   76  A    between atoms: _170  and  _172
REMARK   77  A    between atoms: _172  and  _173
REMARK   78  A    between atoms: _172  and  _175
REMARK   79  A    between atoms: _175  and  _176
REMARK   80  A    between atoms: _176  and  _177
REMARK   81  A    between atoms: _179  and  _181
REMARK   82  A    between atoms: _181  and  _182
REMARK   83  A    between atoms: _181  and  _184
REMARK   84  A    between atoms: _184  and  _185
REMARK   85  A    between atoms: _187  and  _189
REMARK   86  A    between atoms: _189  and  _190
REMARK   87  A    between atoms: _189  and  _192
REMARK   88  A    between atoms: _192  and  _193
REMARK   89  A    between atoms: _199  and  _201
REMARK   90  A    between atoms: _201  and  _202
REMARK   91  A    between atoms: _201  and  _204
REMARK   92  A    between atoms: _204  and  _205
REMARK   93  A    between atoms: _208  and  _210
REMARK   94  A    between atoms: _210  and  _211
REMARK   95  A    between atoms: _210  and  _213
REMARK   96  A    between atoms: _213  and  _214
REMARK   97  A    between atoms: _214  and  _215
REMARK   98  A    between atoms: _218  and  _220
REMARK   99  A    between atoms: _220  and  _221
REMARK  100  A    between atoms: _220  and  _223
REMARK  101  A    between atoms: _223  and  _224
REMARK  102  A    between atoms: _227  and  _229
REMARK  103  A    between atoms: _229  and  _230
REMARK  104  A    between atoms: _229  and  _232
REMARK  105  A    between atoms: _232  and  _233
REMARK  106  A    between atoms: _236  and  _238
REMARK  107  A    between atoms: _238  and  _239
REMARK  108  A    between atoms: _238  and  _241
REMARK  109  A    between atoms: _241  and  _242
REMARK  110  A    between atoms: _247  and  _249
REMARK  111  A    between atoms: _249  and  _250
REMARK  112  A    between atoms: _249  and  _252
REMARK  113  A    between atoms: _252  and  _253
REMARK  114  A    between atoms: _256  and  _258
REMARK  115  A    between atoms: _258  and  _259
REMARK  116  A    between atoms: _258  and  _261
REMARK  117  A    between atoms: _261  and  _262
REMARK  118  A    between atoms: _267  and  _269
REMARK  119  A    between atoms: _269  and  _270
REMARK  120  A    between atoms: _269  and  _272
REMARK  121  A    between atoms: _272  and  _273
REMARK  122  A    between atoms: _277  and  _278
REMARK  123  A    between atoms: _283  and  _285
REMARK  124  A    between atoms: _285  and  _286
REMARK  125  A    between atoms: _285  and  _288
REMARK  126  A    between atoms: _292  and  _293
REMARK  127  A    between atoms: _298  and  _300
REMARK  128  A    between atoms: _300  and  _301
REMARK  129  A    between atoms: _300  and  _303
REMARK  130  A    between atoms: _303  and  _304
REMARK  131  A    between atoms: _311  and  _312
REMARK  132  A    between atoms: _317  and  _319
REMARK  133  A    between atoms: _319  and  _320
REMARK  134  A    between atoms: _319  and  _322
REMARK  135  A    between atoms: _322  and  _323
REMARK  136  A    between atoms: _325  and  _327
REMARK  137  A    between atoms: _327  and  _328
REMARK  138  A    between atoms: _327  and  _330
REMARK  139  A    between atoms: _330  and  _331
REMARK  140  A    between atoms: _341  and  _343
REMARK  141  A    between atoms: _343  and  _344
REMARK  142  A    between atoms: _343  and  _346
REMARK  143  A    between atoms: _346  and  _347
REMARK  144  A    between atoms: _351  and  ZN_361
REMARK  145  A    between atoms: _352  and  _354
REMARK  146  A    between atoms: _354  and  _355
REMARK  147  A    between atoms: _354  and  _357
REMARK  148  A    between atoms: _357  and  _358
REMARK                            x       y       z     vdW  Elec       q    Type
REMARK                         _______ _______ _______ _____ _____    ______ ____
ROOT
ATOM      1  CB  HIS A   1     -20.833   3.204  47.286  0.00  0.00    +0.072 C 
ENDROOT
BRANCH   1   2
ATOM      2  CG  HIS A   1     -22.106   2.646  47.835  0.00  0.00    +0.082 A 
ATOM      3  ND1 HIS A   1     -22.903   3.366  48.703  0.00  0.00    -0.227 NA
ATOM      4  CE1 HIS A   1     -23.963   2.638  49.020  0.00  0.00    +0.199 A 
ATOM      5  NE2 HIS A   1     -23.923   1.515  48.327  0.00  0.00    -0.221 NA
ATOM      6  CD2 HIS A   1     -22.762   1.482  47.599  0.00  0.00    +0.115 A 
ENDBRANCH   1   2
BRANCH   1   7
ATOM      7  CA  HIS A   1     -19.544   2.823  48.074  0.00  0.00    +0.139 C 
BRANCH   7   8
ATOM      8  N   HIS A   1     -19.107   1.462  47.805  0.00  0.00    -0.239 NA
ATOM      9  H   HIS A   1     -19.766   0.674  47.967  0.00  0.00    +0.142 HD
ENDBRANCH   7   8
BRANCH   7  10
ATOM     10  C   HIS A   1     -19.681   3.100  49.559  0.00  0.00    +0.224 C 
ATOM     11  O   HIS A   1     -20.072   2.218  50.305  0.00  0.00    -0.287 OA
ENDBRANCH   7  10
ENDBRANCH   1   7
TORSDOF 4
REMARK  Name = ../refined-set-2016/4fai/4fai_pocket.pdb
REMARK  148 active torsions:
REMARK  status: ('A' for Active; 'I' for Inactive)
REMARK    1  A    between atoms: _1  and  _3
REMARK    2  A    between atoms: _3  and  _4
REMARK    3  A    between atoms: _3  and  _6
REMARK    4  A    between atoms: _6  and  _7
REMARK    5  A    between atoms: _12  and  _14
REMARK    6  A    between atoms: _14  and  _15
REMARK    7  A    between atoms: _14  and  _17
REMARK    8  A    between atoms: _17  and  _18
REMARK    9  A    between atoms: _18  and  _19
REMARK   10  A    between atoms: _19  and  _20
REMARK   11  A    between atoms: _20  and  _21
REMARK   12  A    between atoms: _25  and  _27
REMARK   13  A    between atoms: _27  and  _28
REMARK   14  A    between atoms: _27  and  _30
REMARK   15  A    between atoms: _30  and  _31
REMARK   16  A    between atoms: _37  and  _39
REMARK   17  A    between atoms: _39  and  _40
REMARK   18  A    between atoms: _39  and  _42
REMARK   19  A    between atoms: _42  and  _43
REMARK   20  A    between atoms: _46  and  _48
REMARK   21  A    between atoms: _48  and  _49
REMARK   22  A    between atoms: _48  and  _51
REMARK   23  A    between atoms: _51  and  _52
REMARK   24  A    between atoms: _52  and  _54
REMARK   25  A    between atoms: _54  and  ZN_361
REMARK   26  A    between atoms: _55  and  _57
REMARK   27  A    between atoms: _57  and  _58
REMARK   28  A    between atoms: _57  and  _60
REMARK   29  A    between atoms: _60  and  _61
REMARK   30  A    between atoms: _63  and  _65
REMARK   31  A    between atoms: _65  and  _66
REMARK   32  A    between atoms: _65  and  _68
REMARK   33  A    between atoms: _68  and  _69
REMARK   34  A    between atoms: _69  and  _70
REMARK   35  A    between atoms: _73  and  _75
REMARK   36  A    between atoms: _75  and  _76
REMARK   37  A    between atoms: _75  and  _78
REMARK   38  A    between atoms: _78  and  _79
REMARK   39  A    between atoms: _79  and  _80
REMARK   40  A    between atoms: _80  and  _81
REMARK   41  A    between atoms: _81  and  ZN_361
REMARK   42  A    between atoms: _83  and  _85
REMARK   43  A    between atoms: _85  and  _86
REMARK   44  A    between atoms: _89  and  _91
REMARK   45  A    between atoms: _91  and  _92
REMARK   46  A    between atoms: _91  and  _94
REMARK   47  A    between atoms: _94  and  _95
REMARK   48  A    between atoms: _105  and  _107
REMARK   49  A    between atoms: _107  and  _108
REMARK   50  A    between atoms: _107  and  _110
REMARK   51  A    between atoms: _110  and  _111
REMARK   52  A    between atoms: _113  and  _115
REMARK   53  A    between atoms: _115  and  _116
REMARK   54  A    between atoms: _115  and  _118
REMARK   55  A    between atoms: _118  and  _119
REMARK   56  A    between atoms: _122  and  _124
REMARK   57  A    between atoms: _124  and  _125
REMARK   58  A    between atoms: _124  and  _127
REMARK   59  A    between atoms: _127  and  _128
REMARK   60  A    between atoms: _131  and  _133
REMARK   61  A    between atoms: _133  and  _134
REMARK   62  A    between atoms: _133  and  _136
REMARK   63  A    between atoms: _136  and  _137
REMARK   64  A    between atoms: _140  and  _142
REMARK   65  A    between atoms: _142  and  _143
REMARK   66  A    between atoms: _142  and  _145
REMARK   67  A    between atoms: _145  and  _146
REMARK   68  A    between atoms: _149  and  _151
REMARK   69  A    between atoms: _151  and  _152
REMARK   70  A    between atoms: _151  and  _154
REMARK   71  A    between atoms: _154  and  _155
REMARK   72  A    between atoms: _158  and  _160
REMARK   73  A    between atoms: _160  and  _161
REMARK   74  A    between atoms: _160  and  _163
REMARK   75  A    between atoms: _163  and  _164
REMARK   76  A    between atoms: _170  and  _172
REMARK   77  A    between atoms: _172  and  _173
REMARK   78  A    between atoms: _172  and  _175
REMARK   79  A    between atoms: _175  and  _176
REMARK   80  A    between atoms: _176  and  _177
REMARK   81  A    between atoms: _179  and  _181
REMARK   82  A    between atoms: _181  and  _182
REMARK   83  A    between atoms: _181  and  _184
REMARK   84  A    between atoms: _184  and  _185
REMARK   85  A    between atoms: _187  and  _189
REMARK   86  A    between atoms: _189  and  _190
REMARK   87  A    between atoms: _189  and  _192
REMARK   88  A    between atoms: _192  and  _193
REMARK   89  A    between atoms: _199  and  _201
REMARK   90  A    between atoms: _201  and  _202
REMARK   91  A    between atoms: _201  and  _204
REMARK   92  A    between atoms: _204  and  _205
REMARK   93  A    between atoms: _208  and  _210
REMARK   94  A    between atoms: _210  and  _211
REMARK   95  A    between atoms: _210  and  _213
REMARK   96  A    between atoms: _213  and  _214
REMARK   97  A    between atoms: _214  and  _215
REMARK   98  A    between atoms: _218  and  _220
REMARK   99  A    between atoms: _220  and  _221
REMARK  100  A    between atoms: _220  and  _223
REMARK  101  A    between atoms: _223  and  _224
REMARK  102  A    between atoms: _227  and  _229
REMARK  103  A    between atoms: _229  and  _230
REMARK  104  A    between atoms: _229  and  _232
REMARK  105  A    between atoms: _232  and  _233
REMARK  106  A    between atoms: _236  and  _238
REMARK  107  A    between atoms: _238  and  _239
REMARK  108  A    between atoms: _238  and  _241
REMARK  109  A    between atoms: _241  and  _242
REMARK  110  A    between atoms: _247  and  _249
REMARK  111  A    between atoms: _249  and  _250
REMARK  112  A    between atoms: _249  and  _252
REMARK  113  A    between atoms: _252  and  _253
REMARK  114  A    between atoms: _256  and  _258
REMARK  115  A    between atoms: _258  and  _259
REMARK  116  A    between atoms: _258  and  _261
REMARK  117  A    between atoms: _261  and  _262
REMARK  118  A    between atoms: _267  and  _269
REMARK  119  A    between atoms: _269  and  _270
REMARK  120  A    between atoms: _269  and  _272
REMARK  121  A    between atoms: _272  and  _273
REMARK  122  A    between atoms: _277  and  _278
REMARK  123  A    between atoms: _283  and  _285
REMARK  124  A    between atoms: _285  and  _286
REMARK  125  A    between atoms: _285  and  _288
REMARK  126  A    between atoms: _292  and  _293
REMARK  127  A    between atoms: _298  and  _300
REMARK  128  A    between atoms: _300  and  _301
REMARK  129  A    between atoms: _300  and  _303
REMARK  130  A    between atoms: _303  and  _304
REMARK  131  A    between atoms: _311  and  _312
REMARK  132  A    between atoms: _317  and  _319
REMARK  133  A    between atoms: _319  and  _320
REMARK  134  A    between atoms: _319  and  _322
REMARK  135  A    between atoms: _322  and  _323
REMARK  136  A    between atoms: _325  and  _327
REMARK  137  A    between atoms: _327  and  _328
REMARK  138  A    between atoms: _327  and  _330
REMARK  139  A    between atoms: _330  and  _331
REMARK  140  A    between atoms: _341  and  _343
REMARK  141  A    between atoms: _343  and  _344
REMARK  142  A    between atoms: _343  and  _346
REMARK  143  A    between atoms: _346  and  _347
REMARK  144  A    between atoms: _351  and  ZN_361
REMARK  145  A    between atoms: _352  and  _354
REMARK  146  A    between atoms: _354  and  _355
REMARK  147  A    between atoms: _354  and  _357
REMARK  148  A    between atoms: _357  and  _358
REMARK                            x       y       z     vdW  Elec       q    Type
REMARK                         _______ _______ _______ _____ _____    ______ ____
ROOT
ATOM      1  CG  LYS A   1     -31.216   5.563  49.272  0.00  0.00    -0.000 C 
ENDROOT
BRANCH   1   2
ATOM      2  CB  LYS A   1     -30.037   5.135  50.148  0.00  0.00    +0.025 C 
BRANCH   2   3
ATOM      3  CA  LYS A   1     -29.172   6.279  50.615  0.00  0.00    +0.133 C 
BRANCH   3   4
ATOM      4  N   LYS A   1     -28.006   5.768  51.336  0.00  0.00    -0.239 NA
ATOM      5  H   LYS A   1     -27.939   4.744  51.506  0.00  0.00    +0.142 HD
ENDBRANCH   3   4
BRANCH   3   6
ATOM      6  C   LYS A   1     -30.012   7.244  51.467  0.00  0.00    +0.224 C 
ATOM      7  O   LYS A   1     -30.314   6.979  52.618  0.00  0.00    -0.287 OA
ENDBRANCH   3   6
ENDBRANCH   2   3
ENDBRANCH   1   2
BRANCH   1   8
ATOM      8  CD  LYS A   1     -31.822   4.365  48.536  0.00  0.00    -0.024 C 
BRANCH   8   9
ATOM      9  CE  LYS A   1     -33.054   4.756  47.690  0.00  0.00    -0.086 C 
BRANCH   9  10
ATOM     10  NZ  LYS A   1     -32.779   5.663  46.596  0.00  0.00    +0.380 N 
ATOM     11  HZ1 LYS A   1     -32.381   6.547  46.972  0.00  0.00    -0.089 HD
ATOM     12  HZ2 LYS A   1     -33.662   5.868  46.087  0.00  0.00    -0.089 HD
ATOM     13  HZ3 LYS A   1     -32.097   5.223  45.946  0.00  0.00    -0.089 HD
ENDBRANCH   9  10
ENDBRANCH   8   9
ENDBRANCH   1   8
TORSDOF 7
REMARK  Name = ../refined-set-2016/4fai/4fai_pocket.pdb
REMARK  148 active torsions:
REMARK  status: ('A' for Active; 'I' for Inactive)
REMARK    1  A    between atoms: _1  and  _3
REMARK    2  A    between atoms: _3  and  _4
REMARK    3  A    between atoms: _3  and  _6
REMARK    4  A    between atoms: _6  and  _7
REMARK    5  A    between atoms: _12  and  _14
REMARK    6  A    between atoms: _14  and  _15
REMARK    7  A    between atoms: _14  and  _17
REMARK    8  A    between atoms: _17  and  _18
REMARK    9  A    between atoms: _18  and  _19
REMARK   10  A    between atoms: _19  and  _20
REMARK   11  A    between atoms: _20  and  _21
REMARK   12  A    between atoms: _25  and  _27
REMARK   13  A    between atoms: _27  and  _28
REMARK   14  A    between atoms: _27  and  _30
REMARK   15  A    between atoms: _30  and  _31
REMARK   16  A    between atoms: _37  and  _39
REMARK   17  A    between atoms: _39  and  _40
REMARK   18  A    between atoms: _39  and  _42
REMARK   19  A    between atoms: _42  and  _43
REMARK   20  A    between atoms: _46  and  _48
REMARK   21  A    between atoms: _48  and  _49
REMARK   22  A    between atoms: _48  and  _51
REMARK   23  A    between atoms: _51  and  _52
REMARK   24  A    between atoms: _52  and  _54
REMARK   25  A    between atoms: _54  and  ZN_361
REMARK   26  A    between atoms: _55  and  _57
REMARK   27  A    between atoms: _57  and  _58
REMARK   28  A    between atoms: _57  and  _60
REMARK   29  A    between atoms: _60  and  _61
REMARK   30  A    between atoms: _63  and  _65
REMARK   31  A    between atoms: _65  and  _66
REMARK   32  A    between atoms: _65  and  _68
REMARK   33  A    between atoms: _68  and  _69
REMARK   34  A    between atoms: _69  and  _70
REMARK   35  A    between atoms: _73  and  _75
REMARK   36  A    between atoms: _75  and  _76
REMARK   37  A    between atoms: _75  and  _78
REMARK   38  A    between atoms: _78  and  _79
REMARK   39  A    between atoms: _79  and  _80
REMARK   40  A    between atoms: _80  and  _81
REMARK   41  A    between atoms: _81  and  ZN_361
REMARK   42  A    between atoms: _83  and  _85
REMARK   43  A    between atoms: _85  and  _86
REMARK   44  A    between atoms: _89  and  _91
REMARK   45  A    between atoms: _91  and  _92
REMARK   46  A    between atoms: _91  and  _94
REMARK   47  A    between atoms: _94  and  _95
REMARK   48  A    between atoms: _105  and  _107
REMARK   49  A    between atoms: _107  and  _108
REMARK   50  A    between atoms: _107  and  _110
REMARK   51  A    between atoms: _110  and  _111
REMARK   52  A    between atoms: _113  and  _115
REMARK   53  A    between atoms: _115  and  _116
REMARK   54  A    between atoms: _115  and  _118
REMARK   55  A    between atoms: _118  and  _119
REMARK   56  A    between atoms: _122  and  _124
REMARK   57  A    between atoms: _124  and  _125
REMARK   58  A    between atoms: _124  and  _127
REMARK   59  A    between atoms: _127  and  _128
REMARK   60  A    between atoms: _131  and  _133
REMARK   61  A    between atoms: _133  and  _134
REMARK   62  A    between atoms: _133  and  _136
REMARK   63  A    between atoms: _136  and  _137
REMARK   64  A    between atoms: _140  and  _142
REMARK   65  A    between atoms: _142  and  _143
REMARK   66  A    between atoms: _142  and  _145
REMARK   67  A    between atoms: _145  and  _146
REMARK   68  A    between atoms: _149  and  _151
REMARK   69  A    between atoms: _151  and  _152
REMARK   70  A    between atoms: _151  and  _154
REMARK   71  A    between atoms: _154  and  _155
REMARK   72  A    between atoms: _158  and  _160
REMARK   73  A    between atoms: _160  and  _161
REMARK   74  A    between atoms: _160  and  _163
REMARK   75  A    between atoms: _163  and  _164
REMARK   76  A    between atoms: _170  and  _172
REMARK   77  A    between atoms: _172  and  _173
REMARK   78  A    between atoms: _172  and  _175
REMARK   79  A    between atoms: _175  and  _176
REMARK   80  A    between atoms: _176  and  _177
REMARK   81  A    between atoms: _179  and  _181
REMARK   82  A    between atoms: _181  and  _182
REMARK   83  A    between atoms: _181  and  _184
REMARK   84  A    between atoms: _184  and  _185
REMARK   85  A    between atoms: _187  and  _189
REMARK   86  A    between atoms: _189  and  _190
REMARK   87  A    between atoms: _189  and  _192
REMARK   88  A    between atoms: _192  and  _193
REMARK   89  A    between atoms: _199  and  _201
REMARK   90  A    between atoms: _201  and  _202
REMARK   91  A    between atoms: _201  and  _204
REMARK   92  A    between atoms: _204  and  _205
REMARK   93  A    between atoms: _208  and  _210
REMARK   94  A    between atoms: _210  and  _211
REMARK   95  A    between atoms: _210  and  _213
REMARK   96  A    between atoms: _213  and  _214
REMARK   97  A    between atoms: _214  and  _215
REMARK   98  A    between atoms: _218  and  _220
REMARK   99  A    between atoms: _220  and  _221
REMARK  100  A    between atoms: _220  and  _223
REMARK  101  A    between atoms: _223  and  _224
REMARK  102  A    between atoms: _227  and  _229
REMARK  103  A    between atoms: _229  and  _230
REMARK  104  A    between atoms: _229  and  _232
REMARK  105  A    between atoms: _232  and  _233
REMARK  106  A    between atoms: _236  and  _238
REMARK  107  A    between atoms: _238  and  _239
REMARK  108  A    between atoms: _238  and  _241
REMARK  109  A    between atoms: _241  and  _242
REMARK  110  A    between atoms: _247  and  _249
REMARK  111  A    between atoms: _249  and  _250
REMARK  112  A    between atoms: _249  and  _252
REMARK  113  A    between atoms: _252  and  _253
REMARK  114  A    between atoms: _256  and  _258
REMARK  115  A    between atoms: _258  and  _259
REMARK  116  A    between atoms: _258  and  _261
REMARK  117  A    between atoms: _261  and  _262
REMARK  118  A    between atoms: _267  and  _269
REMARK  119  A    between atoms: _269  and  _270
REMARK  120  A    between atoms: _269  and  _272
REMARK  121  A    between atoms: _272  and  _273
REMARK  122  A    between atoms: _277  and  _278
REMARK  123  A    between atoms: _283  and  _285
REMARK  124  A    between atoms: _285  and  _286
REMARK  125  A    between atoms: _285  and  _288
REMARK  126  A    between atoms: _292  and  _293
REMARK  127  A    between atoms: _298  and  _300
REMARK  128  A    between atoms: _300  and  _301
REMARK  129  A    between atoms: _300  and  _303
REMARK  130  A    between atoms: _303  and  _304
REMARK  131  A    between atoms: _311  and  _312
REMARK  132  A    between atoms: _317  and  _319
REMARK  133  A    between atoms: _319  and  _320
REMARK  134  A    between atoms: _319  and  _322
REMARK  135  A    between atoms: _322  and  _323
REMARK  136  A    between atoms: _325  and  _327
REMARK  137  A    between atoms: _327  and  _328
REMARK  138  A    between atoms: _327  and  _330
REMARK  139  A    between atoms: _330  and  _331
REMARK  140  A    between atoms: _341  and  _343
REMARK  141  A    between atoms: _343  and  _344
REMARK  142  A    between atoms: _343  and  _346
REMARK  143  A    between atoms: _346  and  _347
REMARK  144  A    between atoms: _351  and  ZN_361
REMARK  145  A    between atoms: _352  and  _354
REMARK  146  A    between atoms: _354  and  _355
REMARK  147  A    between atoms: _354  and  _357
REMARK  148  A    between atoms: _357  and  _358
REMARK                            x       y       z     vdW  Elec       q    Type
REMARK                         _______ _______ _______ _____ _____    ______ ____
ROOT
ATOM      1  CB  PHE A   1     -31.662   4.554  55.193  0.00  0.00    +0.051 C 
ENDROOT
BRANCH   1   2
ATOM      2  CG  PHE A   1     -31.193   3.392  54.377  0.00  0.00    -0.020 A 
ATOM      3  CD2 PHE A   1     -31.812   2.159  54.488  0.00  0.00    -0.004 A 
ATOM      4  CE2 PHE A   1     -31.389   1.080  53.711  0.00  0.00    -0.000 A 
ATOM      5  CZ  PHE A   1     -30.294   1.226  52.858  0.00  0.00    -0.000 A 
ATOM      6  CE1 PHE A   1     -29.661   2.454  52.753  0.00  0.00    -0.000 A 
ATOM      7  CD1 PHE A   1     -30.098   3.531  53.516  0.00  0.00    -0.004 A 
ENDBRANCH   1   2
BRANCH   1   8
ATOM      8  CA  PHE A   1     -31.369   4.401  56.677  0.00  0.00    +0.137 C 
BRANCH   8   9
ATOM      9  N   PHE A   1     -31.726   5.613  57.400  0.00  0.00    -0.239 NA
ATOM     10  H   PHE A   1     -31.269   6.514  57.153  0.00  0.00    +0.142 HD
ENDBRANCH   8   9
BRANCH   8  11
ATOM     11  C   PHE A   1     -29.888   4.151  56.898  0.00  0.00    +0.224 C 
ATOM     12  O   PHE A   1     -29.065   4.962  56.522  0.00  0.00    -0.287 OA
ENDBRANCH   8  11
ENDBRANCH   1   8
TORSDOF 4
REMARK  Name = ../refined-set-2016/4fai/4fai_pocket.pdb
REMARK  148 active torsions:
REMARK  status: ('A' for Active; 'I' for Inactive)
REMARK    1  A    between atoms: _1  and  _3
REMARK    2  A    between atoms: _3  and  _4
REMARK    3  A    between atoms: _3  and  _6
REMARK    4  A    between atoms: _6  and  _7
REMARK    5  A    between atoms: _12  and  _14
REMARK    6  A    between atoms: _14  and  _15
REMARK    7  A    between atoms: _14  and  _17
REMARK    8  A    between atoms: _17  and  _18
REMARK    9  A    between atoms: _18  and  _19
REMARK   10  A    between atoms: _19  and  _20
REMARK   11  A    between atoms: _20  and  _21
REMARK   12  A    between atoms: _25  and  _27
REMARK   13  A    between atoms: _27  and  _28
REMARK   14  A    between atoms: _27  and  _30
REMARK   15  A    between atoms: _30  and  _31
REMARK   16  A    between atoms: _37  and  _39
REMARK   17  A    between atoms: _39  and  _40
REMARK   18  A    between atoms: _39  and  _42
REMARK   19  A    between atoms: _42  and  _43
REMARK   20  A    between atoms: _46  and  _48
REMARK   21  A    between atoms: _48  and  _49
REMARK   22  A    between atoms: _48  and  _51
REMARK   23  A    between atoms: _51  and  _52
REMARK   24  A    between atoms: _52  and  _54
REMARK   25  A    between atoms: _54  and  ZN_361
REMARK   26  A    between atoms: _55  and  _57
REMARK   27  A    between atoms: _57  and  _58
REMARK   28  A    between atoms: _57  and  _60
REMARK   29  A    between atoms: _60  and  _61
REMARK   30  A    between atoms: _63  and  _65
REMARK   31  A    between atoms: _65  and  _66
REMARK   32  A    between atoms: _65  and  _68
REMARK   33  A    between atoms: _68  and  _69
REMARK   34  A    between atoms: _69  and  _70
REMARK   35  A    between atoms: _73  and  _75
REMARK   36  A    between atoms: _75  and  _76
REMARK   37  A    between atoms: _75  and  _78
REMARK   38  A    between atoms: _78  and  _79
REMARK   39  A    between atoms: _79  and  _80
REMARK   40  A    between atoms: _80  and  _81
REMARK   41  A    between atoms: _81  and  ZN_361
REMARK   42  A    between atoms: _83  and  _85
REMARK   43  A    between atoms: _85  and  _86
REMARK   44  A    between atoms: _89  and  _91
REMARK   45  A    between atoms: _91  and  _92
REMARK   46  A    between atoms: _91  and  _94
REMARK   47  A    between atoms: _94  and  _95
REMARK   48  A    between atoms: _105  and  _107
REMARK   49  A    between atoms: _107  and  _108
REMARK   50  A    between atoms: _107  and  _110
REMARK   51  A    between atoms: _110  and  _111
REMARK   52  A    between atoms: _113  and  _115
REMARK   53  A    between atoms: _115  and  _116
REMARK   54  A    between atoms: _115  and  _118
REMARK   55  A    between atoms: _118  and  _119
REMARK   56  A    between atoms: _122  and  _124
REMARK   57  A    between atoms: _124  and  _125
REMARK   58  A    between atoms: _124  and  _127
REMARK   59  A    between atoms: _127  and  _128
REMARK   60  A    between atoms: _131  and  _133
REMARK   61  A    between atoms: _133  and  _134
REMARK   62  A    between atoms: _133  and  _136
REMARK   63  A    between atoms: _136  and  _137
REMARK   64  A    between atoms: _140  and  _142
REMARK   65  A    between atoms: _142  and  _143
REMARK   66  A    between atoms: _142  and  _145
REMARK   67  A    between atoms: _145  and  _146
REMARK   68  A    between atoms: _149  and  _151
REMARK   69  A    between atoms: _151  and  _152
REMARK   70  A    between atoms: _151  and  _154
REMARK   71  A    between atoms: _154  and  _155
REMARK   72  A    between atoms: _158  and  _160
REMARK   73  A    between atoms: _160  and  _161
REMARK   74  A    between atoms: _160  and  _163
REMARK   75  A    between atoms: _163  and  _164
REMARK   76  A    between atoms: _170  and  _172
REMARK   77  A    between atoms: _172  and  _173
REMARK   78  A    between atoms: _172  and  _175
REMARK   79  A    between atoms: _175  and  _176
REMARK   80  A    between atoms: _176  and  _177
REMARK   81  A    between atoms: _179  and  _181
REMARK   82  A    between atoms: _181  and  _182
REMARK   83  A    between atoms: _181  and  _184
REMARK   84  A    between atoms: _184  and  _185
REMARK   85  A    between atoms: _187  and  _189
REMARK   86  A    between atoms: _189  and  _190
REMARK   87  A    between atoms: _189  and  _192
REMARK   88  A    between atoms: _192  and  _193
REMARK   89  A    between atoms: _199  and  _201
REMARK   90  A    between atoms: _201  and  _202
REMARK   91  A    between atoms: _201  and  _204
REMARK   92  A    between atoms: _204  and  _205
REMARK   93  A    between atoms: _208  and  _210
REMARK   94  A    between atoms: _210  and  _211
REMARK   95  A    between atoms: _210  and  _213
REMARK   96  A    between atoms: _213  and  _214
REMARK   97  A    between atoms: _214  and  _215
REMARK   98  A    between atoms: _218  and  _220
REMARK   99  A    between atoms: _220  and  _221
REMARK  100  A    between atoms: _220  and  _223
REMARK  101  A    between atoms: _223  and  _224
REMARK  102  A    between atoms: _227  and  _229
REMARK  103  A    between atoms: _229  and  _230
REMARK  104  A    between atoms: _229  and  _232
REMARK  105  A    between atoms: _232  and  _233
REMARK  106  A    between atoms: _236  and  _238
REMARK  107  A    between atoms: _238  and  _239
REMARK  108  A    between atoms: _238  and  _241
REMARK  109  A    between atoms: _241  and  _242
REMARK  110  A    between atoms: _247  and  _249
REMARK  111  A    between atoms: _249  and  _250
REMARK  112  A    between atoms: _249  and  _252
REMARK  113  A    between atoms: _252  and  _253
REMARK  114  A    between atoms: _256  and  _258
REMARK  115  A    between atoms: _258  and  _259
REMARK  116  A    between atoms: _258  and  _261
REMARK  117  A    between atoms: _261  and  _262
REMARK  118  A    between atoms: _267  and  _269
REMARK  119  A    between atoms: _269  and  _270
REMARK  120  A    between atoms: _269  and  _272
REMARK  121  A    between atoms: _272  and  _273
REMARK  122  A    between atoms: _277  and  _278
REMARK  123  A    between atoms: _283  and  _285
REMARK  124  A    between atoms: _285  and  _286
REMARK  125  A    between atoms: _285  and  _288
REMARK  126  A    between atoms: _292  and  _293
REMARK  127  A    between atoms: _298  and  _300
REMARK  128  A    between atoms: _300  and  _301
REMARK  129  A    between atoms: _300  and  _303
REMARK  130  A    between atoms: _303  and  _304
REMARK  131  A    between atoms: _311  and  _312
REMARK  132  A    between atoms: _317  and  _319
REMARK  133  A    between atoms: _319  and  _320
REMARK  134  A    between atoms: _319  and  _322
REMARK  135  A    between atoms: _322  and  _323
REMARK  136  A    between atoms: _325  and  _327
REMARK  137  A    between atoms: _327  and  _328
REMARK  138  A    between atoms: _327  and  _330
REMARK  139  A    between atoms: _330  and  _331
REMARK  140  A    between atoms: _341  and  _343
REMARK  141  A    between atoms: _343  and  _344
REMARK  142  A    between atoms: _343  and  _346
REMARK  143  A    between atoms: _346  and  _347
REMARK  144  A    between atoms: _351  and  ZN_361
REMARK  145  A    between atoms: _352  and  _354
REMARK  146  A    between atoms: _354  and  _355
REMARK  147  A    between atoms: _354  and  _357
REMARK  148  A    between atoms: _357  and  _358
REMARK                            x       y       z     vdW  Elec       q    Type
REMARK                         _______ _______ _______ _____ _____    ______ ____
ROOT
ATOM      1 ZN   UNK A   2     -28.402   0.817  47.746  0.00  0.00    +0.000 Zn
ENDROOT
BRANCH   1   2
ATOM      2  N   UNK A   2     -30.453   0.926  47.648  0.00  0.00    +0.000 N 
ATOM      3  C   UNK A   2     -31.182   0.442  48.708  0.00  0.00    +0.000 A 
ATOM      4  C   UNK A   2     -32.490   0.556  48.378  0.00  0.00    +0.000 A 
ATOM      5  N   UNK A   2     -32.522   1.149  47.132  0.00  0.00    +0.000 NA
ATOM      6  C   UNK A   2     -31.285   1.352  46.713  0.00  0.00    +0.000 A 
BRANCH   4   7
ATOM      7  C   UNK A   2     -33.727   0.204  49.157  0.00  0.00    +0.000 C 
BRANCH   7   8
ATOM      8  C   UNK A   2     -33.426  -0.270  50.588  0.00  0.00    +0.000 C 
BRANCH   8   9
ATOM      9  N   UNK A   2     -32.808  -1.607  50.601  0.00  0.00    +0.000 N 
ATOM     10  H   UNK A   2     -31.805  -1.690  50.863  0.00  0.00    +0.000 HD
ATOM     11  C   TRP A   1     -33.485  -2.722  50.289  0.00  0.00    +0.000 C 
ATOM     12  O   TRP A   1     -34.693  -2.737  49.976  0.00  0.00    +0.000 OA
BRANCH  11  13
ATOM     13  CA  TRP A   1     -32.679  -4.023  50.324  0.00  0.00    +0.000 C 
BRANCH  13  14
ATOM     14  N   TRP A   1     -33.268  -5.020  51.201  0.00  0.00    +0.000 NA
ATOM     15  H   TRP A   1     -33.388  -5.986  50.835  0.00  0.00    +0.000 HD
ENDBRANCH  13  14
BRANCH  13  16
ATOM     16  CB  TRP A   1     -32.543  -4.584  48.904  0.00  0.00    +0.000 C 
BRANCH  16  17
ATOM     17  CG  TRP A   1     -31.889  -3.643  47.933  0.00  0.00    +0.000 A 
ATOM     18  CD1 TRP A   1     -30.542  -3.318  47.854  0.00  0.00    +0.000 A 
ATOM     19  NE1 TRP A   1     -30.336  -2.430  46.829  0.00  0.00    +0.000 N 
ATOM     20  HE1 TRP A   1     -29.421  -2.014  46.561  0.00  0.00    +0.000 HD
ATOM     21  CE2 TRP A   1     -31.544  -2.180  46.213  0.00  0.00    +0.000 A 
ATOM     22  CZ2 TRP A   1     -31.842  -1.363  45.137  0.00  0.00    +0.000 A 
ATOM     23  CH2 TRP A   1     -33.145  -1.310  44.725  0.00  0.00    +0.000 A 
ATOM     24  CZ3 TRP A   1     -34.140  -2.048  45.370  0.00  0.00    +0.000 A 
ATOM     25  CE3 TRP A   1     -33.865  -2.838  46.444  0.00  0.00    +0.000 A 
ATOM     26  CD2 TRP A   1     -32.534  -2.918  46.895  0.00  0.00    +0.000 A 
ENDBRANCH  16  17
ENDBRANCH  13  16
ENDBRANCH  11  13
ENDBRANCH   8   9
BRANCH   8  27
ATOM     27  C   UNK A   2     -34.647  -0.141  51.522  0.00  0.00    +0.000 C 
ATOM     28  O   UNK A   2     -35.569   0.616  51.249  0.00  0.00    +0.000 OA
ENDBRANCH   8  27
ENDBRANCH   7   8
ENDBRANCH   4   7
ENDBRANCH   1   2
BRANCH   1  29
ATOM     29  O   UNK A   2     -27.494   2.507  48.223  0.00  0.00    +0.000 OA
BRANCH  29  30
ATOM     30  C   UNK A   2     -27.783   3.490  47.519  0.00  0.00    +0.000 C 
ATOM     31  O   UNK A   2     -28.615   3.427  46.569  0.00  0.00    +0.000 OA
BRANCH  30  32
ATOM     32  C   UNK A   2     -27.069   4.762  47.814  0.00  0.00    +0.000 C 
BRANCH  32  33
ATOM     33  C   UNK A   2     -27.664   5.977  47.120  0.00  0.00    +0.000 C 
BRANCH  33  34
ATOM     34  C   UNK A   2     -27.233   6.096  45.656  0.00  0.00    +0.000 C 
BRANCH  34  35
ATOM     35  C   UNK A   2     -27.942   7.285  45.027  0.00  0.00    +0.000 C 
ATOM     36  O   UNK A   2     -27.460   8.401  45.069  0.00  0.00    +0.000 OA
ATOM     37  N   ALA A   3     -29.101   6.979  44.453  0.00  0.00    +0.000 N 
ATOM     38  H   ALA A   3     -29.369   5.978  44.367  0.00  0.00    +0.000 HD
BRANCH  37  39
ATOM     39  CA  ALA A   3     -30.010   7.997  43.940  0.00  0.00    +0.000 C 
ATOM     40  CB  ALA A   3     -31.103   7.366  43.141  0.00  0.00    +0.000 C 
BRANCH  39  41
ATOM     41  C   ALA A   3     -30.607   8.772  45.108  0.00  0.00    +0.000 C 
ATOM     42  O   ALA A   3     -30.769   8.251  46.199  0.00  0.00    +0.000 OA
ENDBRANCH  39  41
ENDBRANCH  37  39
ENDBRANCH  34  35
BRANCH  34  43
ATOM     43  N   UNK A   2     -25.775   6.194  45.561  0.00  0.00    +0.000 N 
ATOM     44  H   UNK A   2     -25.231   6.559  46.369  0.00  0.00    +0.000 HD
ATOM     45  C   TRP A   1     -25.135   5.821  44.452  0.00  0.00    +0.000 C 
ATOM     46  O   TRP A   1     -25.723   5.559  43.396  0.00  0.00    +0.000 OA
BRANCH  45  47
ATOM     47  CA  TRP A   1     -23.605   5.724  44.522  0.00  0.00    +0.000 C 
BRANCH  47  48
ATOM     48  N   TRP A   1     -23.005   6.828  45.254  0.00  0.00    +0.000 NA
ATOM     49  H   TRP A   1     -22.402   6.632  46.079  0.00  0.00    +0.000 HD
ENDBRANCH  47  48
BRANCH  47  50
ATOM     50  CB  TRP A   1     -23.181   4.379  45.111  0.00  0.00    +0.000 C 
BRANCH  50  51
ATOM     51  CG  TRP A   1     -23.530   3.189  44.248  0.00  0.00    +0.000 C 
BRANCH  51  52
ATOM     52  CD  TRP A   1     -24.860   2.525  44.596  0.00  0.00    +0.000 C 
ATOM     53  OE2 TRP A   1     -25.599   3.018  45.488  0.00  0.00    +0.000 OA
ATOM     54  OE1 TRP A   1     -25.155   1.488  43.972  0.00  0.00    +0.000 OA
ENDBRANCH  51  52
ENDBRANCH  50  51
ENDBRANCH  47  50
ENDBRANCH  45  47
ENDBRANCH  34  43
ENDBRANCH  33  34
ENDBRANCH  32  33
ENDBRANCH  30  32
ENDBRANCH  29  30
ENDBRANCH   1  29
BRANCH   1  55
ATOM     55  O   UNK A   2     -28.264  -0.367  49.286  0.00  0.00    +0.000 OA
BRANCH  55  56
ATOM     56  C   UNK A   2     -27.055  -0.581  49.613  0.00  0.00    +0.000 C 
ATOM     57  O   UNK A   2     -26.126  -0.156  48.897  0.00  0.00    +0.000 OA
BRANCH  56  58
ATOM     58  C   UNK A   2     -26.815  -1.372  50.874  0.00  0.00    +0.000 C 
BRANCH  58  59
ATOM     59  C   UNK A   2     -25.341  -1.418  51.336  0.00  0.00    +0.000 C 
BRANCH  59  61
ATOM     60  C   TRP A   1     -24.753  -3.545  52.460  0.00  0.00    +0.000 C 
ATOM     61  N   UNK A   2     -25.299  -2.322  52.491  0.00  0.00    +0.000 N 
ATOM     62  H   UNK A   2     -25.717  -1.994  53.385  0.00  0.00    +0.000 HD
ATOM     63  O   TRP A   1     -23.969  -3.926  51.596  0.00  0.00    +0.000 OA
BRANCH  60  64
ATOM     64  CA  TRP A   1     -25.120  -4.476  53.597  0.00  0.00    +0.000 C 
BRANCH  64  65
ATOM     65  CB  TRP A   1     -26.139  -5.452  53.005  0.00  0.00    +0.000 C 
ATOM     66  CG2 TRP A   1     -26.637  -6.356  54.062  0.00  0.00    +0.000 C 
BRANCH  65  67
ATOM     67  OG1 TRP A   1     -27.185  -4.716  52.339  0.00  0.00    +0.000 OA
ATOM     68  HG1 TRP A   1     -27.637  -4.124  52.991  0.00  0.00    +0.000 HD
ENDBRANCH  65  67
ENDBRANCH  64  65
BRANCH  64  69
ATOM     69  N   TRP A   1     -25.666  -3.705  54.713  0.00  0.00    +0.000 NA
ATOM     70  H   TRP A   1     -26.698  -3.677  54.839  0.00  0.00    +0.000 HD
ENDBRANCH  64  69
ENDBRANCH  60  64
ENDBRANCH  59  61
BRANCH  59  71
ATOM     71  C   UNK A   2     -24.820  -0.008  51.676  0.00  0.00    +0.000 C 
ATOM     72  N   ALA A   3     -23.516   0.167  51.910  0.00  0.00    +0.000 N 
ATOM     73  H   ALA A   3     -23.226   1.136  52.154  0.00  0.00    +0.000 HD
ATOM     74  O   UNK A   2     -25.606   0.975  51.764  0.00  0.00    +0.000 OA
BRANCH  72  75
ATOM     75  CA  ALA A   3     -22.449  -0.821  51.868  0.00  0.00    +0.000 C 
BRANCH  75  76
ATOM     76  CB  ALA A   3     -21.461  -0.668  53.031  0.00  0.00    +0.000 C 
ATOM     77  O   ALA A   3     -20.231  -0.759  52.878  0.00  0.00    +0.000 OA
ENDBRANCH  75  76
BRANCH  75  78
ATOM     78  C   ALA A   3     -21.718  -0.732  50.510  0.00  0.00    +0.000 C 
BRANCH  78  79
ATOM     79  O   ALA A   3     -22.527  -1.329  49.519  0.00  0.00    +0.000 OA
ATOM     80  H   ALA A   3     -22.067  -1.277  48.644  0.00  0.00    +0.000 HD
ENDBRANCH  78  79
ENDBRANCH  75  78
ENDBRANCH  72  75
ENDBRANCH  59  71
ENDBRANCH  58  59
ENDBRANCH  56  58
ENDBRANCH  55  56
ENDBRANCH   1  55
TORSDOF 37
REMARK  Name = ../refined-set-2016/4fai/4fai_pocket.pdb
REMARK  148 active torsions:
REMARK  status: ('A' for Active; 'I' for Inactive)
REMARK    1  A    between atoms: _1  and  _3
REMARK    2  A    between atoms: _3  and  _4
REMARK    3  A    between atoms: _3  and  _6
REMARK    4  A    between atoms: _6  and  _7
REMARK    5  A    between atoms: _12  and  _14
REMARK    6  A    between atoms: _14  and  _15
REMARK    7  A    between atoms: _14  and  _17
REMARK    8  A    between atoms: _17  and  _18
REMARK    9  A    between atoms: _18  and  _19
REMARK   10  A    between atoms: _19  and  _20
REMARK   11  A    between atoms: _20  and  _21
REMARK   12  A    between atoms: _25  and  _27
REMARK   13  A    between atoms: _27  and  _28
REMARK   14  A    between atoms: _27  and  _30
REMARK   15  A    between atoms: _30  and  _31
REMARK   16  A    between atoms: _37  and  _39
REMARK   17  A    between atoms: _39  and  _40
REMARK   18  A    between atoms: _39  and  _42
REMARK   19  A    between atoms: _42  and  _43
REMARK   20  A    between atoms: _46  and  _48
REMARK   21  A    between atoms: _48  and  _49
REMARK   22  A    between atoms: _48  and  _51
REMARK   23  A    between atoms: _51  and  _52
REMARK   24  A    between atoms: _52  and  _54
REMARK   25  A    between atoms: _54  and  ZN_361
REMARK   26  A    between atoms: _55  and  _57
REMARK   27  A    between atoms: _57  and  _58
REMARK   28  A    between atoms: _57  and  _60
REMARK   29  A    between atoms: _60  and  _61
REMARK   30  A    between atoms: _63  and  _65
REMARK   31  A    between atoms: _65  and  _66
REMARK   32  A    between atoms: _65  and  _68
REMARK   33  A    between atoms: _68  and  _69
REMARK   34  A    between atoms: _69  and  _70
REMARK   35  A    between atoms: _73  and  _75
REMARK   36  A    between atoms: _75  and  _76
REMARK   37  A    between atoms: _75  and  _78
REMARK   38  A    between atoms: _78  and  _79
REMARK   39  A    between atoms: _79  and  _80
REMARK   40  A    between atoms: _80  and  _81
REMARK   41  A    between atoms: _81  and  ZN_361
REMARK   42  A    between atoms: _83  and  _85
REMARK   43  A    between atoms: _85  and  _86
REMARK   44  A    between atoms: _89  and  _91
REMARK   45  A    between atoms: _91  and  _92
REMARK   46  A    between atoms: _91  and  _94
REMARK   47  A    between atoms: _94  and  _95
REMARK   48  A    between atoms: _105  and  _107
REMARK   49  A    between atoms: _107  and  _108
REMARK   50  A    between atoms: _107  and  _110
REMARK   51  A    between atoms: _110  and  _111
REMARK   52  A    between atoms: _113  and  _115
REMARK   53  A    between atoms: _115  and  _116
REMARK   54  A    between atoms: _115  and  _118
REMARK   55  A    between atoms: _118  and  _119
REMARK   56  A    between atoms: _122  and  _124
REMARK   57  A    between atoms: _124  and  _125
REMARK   58  A    between atoms: _124  and  _127
REMARK   59  A    between atoms: _127  and  _128
REMARK   60  A    between atoms: _131  and  _133
REMARK   61  A    between atoms: _133  and  _134
REMARK   62  A    between atoms: _133  and  _136
REMARK   63  A    between atoms: _136  and  _137
REMARK   64  A    between atoms: _140  and  _142
REMARK   65  A    between atoms: _142  and  _143
REMARK   66  A    between atoms: _142  and  _145
REMARK   67  A    between atoms: _145  and  _146
REMARK   68  A    between atoms: _149  and  _151
REMARK   69  A    between atoms: _151  and  _152
REMARK   70  A    between atoms: _151  and  _154
REMARK   71  A    between atoms: _154  and  _155
REMARK   72  A    between atoms: _158  and  _160
REMARK   73  A    between atoms: _160  and  _161
REMARK   74  A    between atoms: _160  and  _163
REMARK   75  A    between atoms: _163  and  _164
REMARK   76  A    between atoms: _170  and  _172
REMARK   77  A    between atoms: _172  and  _173
REMARK   78  A    between atoms: _172  and  _175
REMARK   79  A    between atoms: _175  and  _176
REMARK   80  A    between atoms: _176  and  _177
REMARK   81  A    between atoms: _179  and  _181
REMARK   82  A    between atoms: _181  and  _182
REMARK   83  A    between atoms: _181  and  _184
REMARK   84  A    between atoms: _184  and  _185
REMARK   85  A    between atoms: _187  and  _189
REMARK   86  A    between atoms: _189  and  _190
REMARK   87  A    between atoms: _189  and  _192
REMARK   88  A    between atoms: _192  and  _193
REMARK   89  A    between atoms: _199  and  _201
REMARK   90  A    between atoms: _201  and  _202
REMARK   91  A    between atoms: _201  and  _204
REMARK   92  A    between atoms: _204  and  _205
REMARK   93  A    between atoms: _208  and  _210
REMARK   94  A    between atoms: _210  and  _211
REMARK   95  A    between atoms: _210  and  _213
REMARK   96  A    between atoms: _213  and  _214
REMARK   97  A    between atoms: _214  and  _215
REMARK   98  A    between atoms: _218  and  _220
REMARK   99  A    between atoms: _220  and  _221
REMARK  100  A    between atoms: _220  and  _223
REMARK  101  A    between atoms: _223  and  _224
REMARK  102  A    between atoms: _227  and  _229
REMARK  103  A    between atoms: _229  and  _230
REMARK  104  A    between atoms: _229  and  _232
REMARK  105  A    between atoms: _232  and  _233
REMARK  106  A    between atoms: _236  and  _238
REMARK  107  A    between atoms: _238  and  _239
REMARK  108  A    between atoms: _238  and  _241
REMARK  109  A    between atoms: _241  and  _242
REMARK  110  A    between atoms: _247  and  _249
REMARK  111  A    between atoms: _249  and  _250
REMARK  112  A    between atoms: _249  and  _252
REMARK  113  A    between atoms: _252  and  _253
REMARK  114  A    between atoms: _256  and  _258
REMARK  115  A    between atoms: _258  and  _259
REMARK  116  A    between atoms: _258  and  _261
REMARK  117  A    between atoms: _261  and  _262
REMARK  118  A    between atoms: _267  and  _269
REMARK  119  A    between atoms: _269  and  _270
REMARK  120  A    between atoms: _269  and  _272
REMARK  121  A    between atoms: _272  and  _273
REMARK  122  A    between atoms: _277  and  _278
REMARK  123  A    between atoms: _283  and  _285
REMARK  124  A    between atoms: _285  and  _286
REMARK  125  A    between atoms: _285  and  _288
REMARK  126  A    between atoms: _292  and  _293
REMARK  127  A    between atoms: _298  and  _300
REMARK  128  A    between atoms: _300  and  _301
REMARK  129  A    between atoms: _300  and  _303
REMARK  130  A    between atoms: _303  and  _304
REMARK  131  A    between atoms: _311  and  _312
REMARK  132  A    between atoms: _317  and  _319
REMARK  133  A    between atoms: _319  and  _320
REMARK  134  A    between atoms: _319  and  _322
REMARK  135  A    between atoms: _322  and  _323
REMARK  136  A    between atoms: _325  and  _327
REMARK  137  A    between atoms: _327  and  _328
REMARK  138  A    between atoms: _327  and  _330
REMARK  139  A    between atoms: _330  and  _331
REMARK  140  A    between atoms: _341  and  _343
REMARK  141  A    between atoms: _343  and  _344
REMARK  142  A    between atoms: _343  and  _346
REMARK  143  A    between atoms: _346  and  _347
REMARK  144  A    between atoms: _351  and  ZN_361
REMARK  145  A    between atoms: _352  and  _354
REMARK  146  A    between atoms: _354  and  _355
REMARK  147  A    between atoms: _354  and  _357
REMARK  148  A    between atoms: _357  and  _358
REMARK                            x       y       z     vdW  Elec       q    Type
REMARK                         _______ _______ _______ _____ _____    ______ ____
ROOT
ATOM      1  CG  TRP A   1     -31.021   3.644  40.008  0.00  0.00    -0.002 A 
ATOM      2  CD2 TRP A   1     -29.766   3.473  40.681  0.00  0.00    +0.013 A 
ATOM      3  CE3 TRP A   1     -29.323   3.732  41.985  0.00  0.00    +0.001 A 
ATOM      4  CZ3 TRP A   1     -28.026   3.430  42.315  0.00  0.00    +0.000 A 
ATOM      5  CH2 TRP A   1     -27.142   2.886  41.369  0.00  0.00    +0.001 A 
ATOM      6  CZ2 TRP A   1     -27.543   2.604  40.088  0.00  0.00    +0.017 A 
ATOM      7  CE2 TRP A   1     -28.860   2.909  39.751  0.00  0.00    +0.056 A 
ATOM      8  NE1 TRP A   1     -29.529   2.746  38.568  0.00  0.00    -0.352 N 
ATOM      9  HE1 TRP A   1     -29.128   2.353  37.693  0.00  0.00    +0.166 HD
ATOM     10  CD1 TRP A   1     -30.830   3.192  38.732  0.00  0.00    +0.068 A 
ENDROOT
BRANCH   1  11
ATOM     11  CB  TRP A   1     -32.301   4.208  40.607  0.00  0.00    +0.053 C 
BRANCH  11  12
ATOM     12  CA  TRP A   1     -32.547   5.691  40.286  0.00  0.00    +0.137 C 
BRANCH  12  13
ATOM     13  N   TRP A   1     -33.730   6.199  40.986  0.00  0.00    -0.239 NA
ATOM     14  H   TRP A   1     -34.238   5.562  41.633  0.00  0.00    +0.142 HD
ENDBRANCH  12  13
BRANCH  12  15
ATOM     15  C   TRP A   1     -32.743   5.858  38.787  0.00  0.00    +0.224 C 
ATOM     16  O   TRP A   1     -33.740   5.403  38.244  0.00  0.00    -0.287 OA
ENDBRANCH  12  15
ENDBRANCH  11  12
ENDBRANCH   1  11
TORSDOF 4
REMARK  Name = ../refined-set-2016/4fai/4fai_pocket.pdb
REMARK  148 active torsions:
REMARK  status: ('A' for Active; 'I' for Inactive)
REMARK    1  A    between atoms: _1  and  _3
REMARK    2  A    between atoms: _3  and  _4
REMARK    3  A    between atoms: _3  and  _6
REMARK    4  A    between atoms: _6  and  _7
REMARK    5  A    between atoms: _12  and  _14
REMARK    6  A    between atoms: _14  and  _15
REMARK    7  A    between atoms: _14  and  _17
REMARK    8  A    between atoms: _17  and  _18
REMARK    9  A    between atoms: _18  and  _19
REMARK   10  A    between atoms: _19  and  _20
REMARK   11  A    between atoms: _20  and  _21
REMARK   12  A    between atoms: _25  and  _27
REMARK   13  A    between atoms: _27  and  _28
REMARK   14  A    between atoms: _27  and  _30
REMARK   15  A    between atoms: _30  and  _31
REMARK   16  A    between atoms: _37  and  _39
REMARK   17  A    between atoms: _39  and  _40
REMARK   18  A    between atoms: _39  and  _42
REMARK   19  A    between atoms: _42  and  _43
REMARK   20  A    between atoms: _46  and  _48
REMARK   21  A    between atoms: _48  and  _49
REMARK   22  A    between atoms: _48  and  _51
REMARK   23  A    between atoms: _51  and  _52
REMARK   24  A    between atoms: _52  and  _54
REMARK   25  A    between atoms: _54  and  ZN_361
REMARK   26  A    between atoms: _55  and  _57
REMARK   27  A    between atoms: _57  and  _58
REMARK   28  A    between atoms: _57  and  _60
REMARK   29  A    between atoms: _60  and  _61
REMARK   30  A    between atoms: _63  and  _65
REMARK   31  A    between atoms: _65  and  _66
REMARK   32  A    between atoms: _65  and  _68
REMARK   33  A    between atoms: _68  and  _69
REMARK   34  A    between atoms: _69  and  _70
REMARK   35  A    between atoms: _73  and  _75
REMARK   36  A    between atoms: _75  and  _76
REMARK   37  A    between atoms: _75  and  _78
REMARK   38  A    between atoms: _78  and  _79
REMARK   39  A    between atoms: _79  and  _80
REMARK   40  A    between atoms: _80  and  _81
REMARK   41  A    between atoms: _81  and  ZN_361
REMARK   42  A    between atoms: _83  and  _85
REMARK   43  A    between atoms: _85  and  _86
REMARK   44  A    between atoms: _89  and  _91
REMARK   45  A    between atoms: _91  and  _92
REMARK   46  A    between atoms: _91  and  _94
REMARK   47  A    between atoms: _94  and  _95
REMARK   48  A    between atoms: _105  and  _107
REMARK   49  A    between atoms: _107  and  _108
REMARK   50  A    between atoms: _107  and  _110
REMARK   51  A    between atoms: _110  and  _111
REMARK   52  A    between atoms: _113  and  _115
REMARK   53  A    between atoms: _115  and  _116
REMARK   54  A    between atoms: _115  and  _118
REMARK   55  A    between atoms: _118  and  _119
REMARK   56  A    between atoms: _122  and  _124
REMARK   57  A    between atoms: _124  and  _125
REMARK   58  A    between atoms: _124  and  _127
REMARK   59  A    between atoms: _127  and  _128
REMARK   60  A    between atoms: _131  and  _133
REMARK   61  A    between atoms: _133  and  _134
REMARK   62  A    between atoms: _133  and  _136
REMARK   63  A    between atoms: _136  and  _137
REMARK   64  A    between atoms: _140  and  _142
REMARK   65  A    between atoms: _142  and  _143
REMARK   66  A    between atoms: _142  and  _145
REMARK   67  A    between atoms: _145  and  _146
REMARK   68  A    between atoms: _149  and  _151
REMARK   69  A    between atoms: _151  and  _152
REMARK   70  A    between atoms: _151  and  _154
REMARK   71  A    between atoms: _154  and  _155
REMARK   72  A    between atoms: _158  and  _160
REMARK   73  A    between atoms: _160  and  _161
REMARK   74  A    between atoms: _160  and  _163
REMARK   75  A    between atoms: _163  and  _164
REMARK   76  A    between atoms: _170  and  _172
REMARK   77  A    between atoms: _172  and  _173
REMARK   78  A    between atoms: _172  and  _175
REMARK   79  A    between atoms: _175  and  _176
REMARK   80  A    between atoms: _176  and  _177
REMARK   81  A    between atoms: _179  and  _181
REMARK   82  A    between atoms: _181  and  _182
REMARK   83  A    between atoms: _181  and  _184
REMARK   84  A    between atoms: _184  and  _185
REMARK   85  A    between atoms: _187  and  _189
REMARK   86  A    between atoms: _189  and  _190
REMARK   87  A    between atoms: _189  and  _192
REMARK   88  A    between atoms: _192  and  _193
REMARK   89  A    between atoms: _199  and  _201
REMARK   90  A    between atoms: _201  and  _202
REMARK   91  A    between atoms: _201  and  _204
REMARK   92  A    between atoms: _204  and  _205
REMARK   93  A    between atoms: _208  and  _210
REMARK   94  A    between atoms: _210  and  _211
REMARK   95  A    between atoms: _210  and  _213
REMARK   96  A    between atoms: _213  and  _214
REMARK   97  A    between atoms: _214  and  _215
REMARK   98  A    between atoms: _218  and  _220
REMARK   99  A    between atoms: _220  and  _221
REMARK  100  A    between atoms: _220  and  _223
REMARK  101  A    between atoms: _223  and  _224
REMARK  102  A    between atoms: _227  and  _229
REMARK  103  A    between atoms: _229  and  _230
REMARK  104  A    between atoms: _229  and  _232
REMARK  105  A    between atoms: _232  and  _233
REMARK  106  A    between atoms: _236  and  _238
REMARK  107  A    between atoms: _238  and  _239
REMARK  108  A    between atoms: _238  and  _241
REMARK  109  A    between atoms: _241  and  _242
REMARK  110  A    between atoms: _247  and  _249
REMARK  111  A    between atoms: _249  and  _250
REMARK  112  A    between atoms: _249  and  _252
REMARK  113  A    between atoms: _252  and  _253
REMARK  114  A    between atoms: _256  and  _258
REMARK  115  A    between atoms: _258  and  _259
REMARK  116  A    between atoms: _258  and  _261
REMARK  117  A    between atoms: _261  and  _262
REMARK  118  A    between atoms: _267  and  _269
REMARK  119  A    between atoms: _269  and  _270
REMARK  120  A    between atoms: _269  and  _272
REMARK  121  A    between atoms: _272  and  _273
REMARK  122  A    between atoms: _277  and  _278
REMARK  123  A    between atoms: _283  and  _285
REMARK  124  A    between atoms: _285  and  _286
REMARK  125  A    between atoms: _285  and  _288
REMARK  126  A    between atoms: _292  and  _293
REMARK  127  A    between atoms: _298  and  _300
REMARK  128  A    between atoms: _300  and  _301
REMARK  129  A    between atoms: _300  and  _303
REMARK  130  A    between atoms: _303  and  _304
REMARK  131  A    between atoms: _311  and  _312
REMARK  132  A    between atoms: _317  and  _319
REMARK  133  A    between atoms: _319  and  _320
REMARK  134  A    between atoms: _319  and  _322
REMARK  135  A    between atoms: _322  and  _323
REMARK  136  A    between atoms: _325  and  _327
REMARK  137  A    between atoms: _327  and  _328
REMARK  138  A    between atoms: _327  and  _330
REMARK  139  A    between atoms: _330  and  _331
REMARK  140  A    between atoms: _341  and  _343
REMARK  141  A    between atoms: _343  and  _344
REMARK  142  A    between atoms: _343  and  _346
REMARK  143  A    between atoms: _346  and  _347
REMARK  144  A    between atoms: _351  and  ZN_361
REMARK  145  A    between atoms: _352  and  _354
REMARK  146  A    between atoms: _354  and  _355
REMARK  147  A    between atoms: _354  and  _357
REMARK  148  A    between atoms: _357  and  _358
REMARK                            x       y       z     vdW  Elec       q    Type
REMARK                         _______ _______ _______ _____ _____    ______ ____
ROOT
ATOM      1  C   SER A   1     -25.709   7.689  40.247  0.00  0.00    +0.241 C 
ATOM      2  N   ILE A   2     -24.913   6.911  40.985  0.00  0.00    -0.298 N 
ATOM      3  H   ILE A   2     -25.336   6.389  41.779  0.00  0.00    +0.150 HD
ATOM      4  O   SER A   1     -25.283   8.463  39.396  0.00  0.00    -0.274 OA
ENDROOT
BRANCH   1   5
ATOM      5  CA  SER A   1     -27.207   7.565  40.519  0.00  0.00    +0.174 C 
BRANCH   5   6
ATOM      6  N   SER A   1     -27.875   8.793  40.020  0.00  0.00    -0.236 NA
ATOM      7  H   SER A   1     -27.284   9.556  39.632  0.00  0.00    +0.142 HD
ENDBRANCH   5   6
BRANCH   5   8
ATOM      8  CB  SER A   1     -27.720   6.252  39.878  0.00  0.00    +0.163 C 
BRANCH   8   9
ATOM      9  OG  SER A   1     -27.590   6.259  38.460  0.00  0.00    -0.380 OA
ATOM     10  H   SER A   1     -28.115   7.010  38.085  0.00  0.00    +0.211 HD
ENDBRANCH   8   9
ENDBRANCH   5   8
ENDBRANCH   1   5
BRANCH   2  11
ATOM     11  CA  ILE A   2     -23.477   6.751  40.739  0.00  0.00    +0.137 C 
BRANCH  11  12
ATOM     12  C   ILE A   2     -22.740   8.065  40.386  0.00  0.00    +0.227 C 
ATOM     13  O   ILE A   2     -21.966   8.186  39.415  0.00  0.00    -0.286 OA
ENDBRANCH  11  12
BRANCH  11  14
ATOM     14  CB  ILE A   2     -23.194   5.586  39.744  0.00  0.00    +0.026 C 
ATOM     15  CG2 ILE A   2     -23.634   4.257  40.351  0.00  0.00    +0.002 C 
BRANCH  14  16
ATOM     16  CG1 ILE A   2     -23.930   5.773  38.407  0.00  0.00    +0.002 C 
ATOM     17  CD1 ILE A   2     -23.394   4.818  37.296  0.00  0.00    +0.000 C 
ENDBRANCH  14  16
ENDBRANCH  11  14
ENDBRANCH   2  11
TORSDOF 8
REMARK  Name = ../refined-set-2016/4fai/4fai_pocket.pdb
REMARK  148 active torsions:
REMARK  status: ('A' for Active; 'I' for Inactive)
REMARK    1  A    between atoms: _1  and  _3
REMARK    2  A    between atoms: _3  and  _4
REMARK    3  A    between atoms: _3  and  _6
REMARK    4  A    between atoms: _6  and  _7
REMARK    5  A    between atoms: _12  and  _14
REMARK    6  A    between atoms: _14  and  _15
REMARK    7  A    between atoms: _14  and  _17
REMARK    8  A    between atoms: _17  and  _18
REMARK    9  A    between atoms: _18  and  _19
REMARK   10  A    between atoms: _19  and  _20
REMARK   11  A    between atoms: _20  and  _21
REMARK   12  A    between atoms: _25  and  _27
REMARK   13  A    between atoms: _27  and  _28
REMARK   14  A    between atoms: _27  and  _30
REMARK   15  A    between atoms: _30  and  _31
REMARK   16  A    between atoms: _37  and  _39
REMARK   17  A    between atoms: _39  and  _40
REMARK   18  A    between atoms: _39  and  _42
REMARK   19  A    between atoms: _42  and  _43
REMARK   20  A    between atoms: _46  and  _48
REMARK   21  A    between atoms: _48  and  _49
REMARK   22  A    between atoms: _48  and  _51
REMARK   23  A    between atoms: _51  and  _52
REMARK   24  A    between atoms: _52  and  _54
REMARK   25  A    between atoms: _54  and  ZN_361
REMARK   26  A    between atoms: _55  and  _57
REMARK   27  A    between atoms: _57  and  _58
REMARK   28  A    between atoms: _57  and  _60
REMARK   29  A    between atoms: _60  and  _61
REMARK   30  A    between atoms: _63  and  _65
REMARK   31  A    between atoms: _65  and  _66
REMARK   32  A    between atoms: _65  and  _68
REMARK   33  A    between atoms: _68  and  _69
REMARK   34  A    between atoms: _69  and  _70
REMARK   35  A    between atoms: _73  and  _75
REMARK   36  A    between atoms: _75  and  _76
REMARK   37  A    between atoms: _75  and  _78
REMARK   38  A    between atoms: _78  and  _79
REMARK   39  A    between atoms: _79  and  _80
REMARK   40  A    between atoms: _80  and  _81
REMARK   41  A    between atoms: _81  and  ZN_361
REMARK   42  A    between atoms: _83  and  _85
REMARK   43  A    between atoms: _85  and  _86
REMARK   44  A    between atoms: _89  and  _91
REMARK   45  A    between atoms: _91  and  _92
REMARK   46  A    between atoms: _91  and  _94
REMARK   47  A    between atoms: _94  and  _95
REMARK   48  A    between atoms: _105  and  _107
REMARK   49  A    between atoms: _107  and  _108
REMARK   50  A    between atoms: _107  and  _110
REMARK   51  A    between atoms: _110  and  _111
REMARK   52  A    between atoms: _113  and  _115
REMARK   53  A    between atoms: _115  and  _116
REMARK   54  A    between atoms: _115  and  _118
REMARK   55  A    between atoms: _118  and  _119
REMARK   56  A    between atoms: _122  and  _124
REMARK   57  A    between atoms: _124  and  _125
REMARK   58  A    between atoms: _124  and  _127
REMARK   59  A    between atoms: _127  and  _128
REMARK   60  A    between atoms: _131  and  _133
REMARK   61  A    between atoms: _133  and  _134
REMARK   62  A    between atoms: _133  and  _136
REMARK   63  A    between atoms: _136  and  _137
REMARK   64  A    between atoms: _140  and  _142
REMARK   65  A    between atoms: _142  and  _143
REMARK   66  A    between atoms: _142  and  _145
REMARK   67  A    between atoms: _145  and  _146
REMARK   68  A    between atoms: _149  and  _151
REMARK   69  A    between atoms: _151  and  _152
REMARK   70  A    between atoms: _151  and  _154
REMARK   71  A    between atoms: _154  and  _155
REMARK   72  A    between atoms: _158  and  _160
REMARK   73  A    between atoms: _160  and  _161
REMARK   74  A    between atoms: _160  and  _163
REMARK   75  A    between atoms: _163  and  _164
REMARK   76  A    between atoms: _170  and  _172
REMARK   77  A    between atoms: _172  and  _173
REMARK   78  A    between atoms: _172  and  _175
REMARK   79  A    between atoms: _175  and  _176
REMARK   80  A    between atoms: _176  and  _177
REMARK   81  A    between atoms: _179  and  _181
REMARK   82  A    between atoms: _181  and  _182
REMARK   83  A    between atoms: _181  and  _184
REMARK   84  A    between atoms: _184  and  _185
REMARK   85  A    between atoms: _187  and  _189
REMARK   86  A    between atoms: _189  and  _190
REMARK   87  A    between atoms: _189  and  _192
REMARK   88  A    between atoms: _192  and  _193
REMARK   89  A    between atoms: _199  and  _201
REMARK   90  A    between atoms: _201  and  _202
REMARK   91  A    between atoms: _201  and  _204
REMARK   92  A    between atoms: _204  and  _205
REMARK   93  A    between atoms: _208  and  _210
REMARK   94  A    between atoms: _210  and  _211
REMARK   95  A    between atoms: _210  and  _213
REMARK   96  A    between atoms: _213  and  _214
REMARK   97  A    between atoms: _214  and  _215
REMARK   98  A    between atoms: _218  and  _220
REMARK   99  A    between atoms: _220  and  _221
REMARK  100  A    between atoms: _220  and  _223
REMARK  101  A    between atoms: _223  and  _224
REMARK  102  A    between atoms: _227  and  _229
REMARK  103  A    between atoms: _229  and  _230
REMARK  104  A    between atoms: _229  and  _232
REMARK  105  A    between atoms: _232  and  _233
REMARK  106  A    between atoms: _236  and  _238
REMARK  107  A    between atoms: _238  and  _239
REMARK  108  A    between atoms: _238  and  _241
REMARK  109  A    between atoms: _241  and  _242
REMARK  110  A    between atoms: _247  and  _249
REMARK  111  A    between atoms: _249  and  _250
REMARK  112  A    between atoms: _249  and  _252
REMARK  113  A    between atoms: _252  and  _253
REMARK  114  A    between atoms: _256  and  _258
REMARK  115  A    between atoms: _258  and  _259
REMARK  116  A    between atoms: _258  and  _261
REMARK  117  A    between atoms: _261  and  _262
REMARK  118  A    between atoms: _267  and  _269
REMARK  119  A    between atoms: _269  and  _270
REMARK  120  A    between atoms: _269  and  _272
REMARK  121  A    between atoms: _272  and  _273
REMARK  122  A    between atoms: _277  and  _278
REMARK  123  A    between atoms: _283  and  _285
REMARK  124  A    between atoms: _285  and  _286
REMARK  125  A    between atoms: _285  and  _288
REMARK  126  A    between atoms: _292  and  _293
REMARK  127  A    between atoms: _298  and  _300
REMARK  128  A    between atoms: _300  and  _301
REMARK  129  A    between atoms: _300  and  _303
REMARK  130  A    between atoms: _303  and  _304
REMARK  131  A    between atoms: _311  and  _312
REMARK  132  A    between atoms: _317  and  _319
REMARK  133  A    between atoms: _319  and  _320
REMARK  134  A    between atoms: _319  and  _322
REMARK  135  A    between atoms: _322  and  _323
REMARK  136  A    between atoms: _325  and  _327
REMARK  137  A    between atoms: _327  and  _328
REMARK  138  A    between atoms: _327  and  _330
REMARK  139  A    between atoms: _330  and  _331
REMARK  140  A    between atoms: _341  and  _343
REMARK  141  A    between atoms: _343  and  _344
REMARK  142  A    between atoms: _343  and  _346
REMARK  143  A    between atoms: _346  and  _347
REMARK  144  A    between atoms: _351  and  ZN_361
REMARK  145  A    between atoms: _352  and  _354
REMARK  146  A    between atoms: _354  and  _355
REMARK  147  A    between atoms: _354  and  _357
REMARK  148  A    between atoms: _357  and  _358
REMARK                            x       y       z     vdW  Elec       q    Type
REMARK                         _______ _______ _______ _____ _____    ______ ____
ROOT
ATOM      1  C   LEU A   2     -19.595  -4.556  46.790  0.00  0.00    +0.241 C 
ATOM      2  O   LEU A   2     -19.507  -3.356  47.006  0.00  0.00    -0.273 OA
ATOM      3  N   ASP A   3     -20.762  -5.189  46.796  0.00  0.00    -0.297 N 
ATOM      4  H   ASP A   3     -20.802  -6.203  46.569  0.00  0.00    +0.150 HD
ENDROOT
BRANCH   3   5
ATOM      5  CA  ASP A   3     -21.999  -4.462  47.122  0.00  0.00    +0.160 C 
BRANCH   5   6
ATOM      6  C   ASP A   3     -22.987  -5.462  47.731  0.00  0.00    +0.241 C 
ATOM      7  N   LEU A   4     -23.781  -4.998  48.693  0.00  0.00    -0.298 N 
ATOM      8  H   LEU A   4     -23.631  -4.024  49.025  0.00  0.00    +0.150 HD
ATOM      9  O   ASP A   3     -23.010  -6.621  47.333  0.00  0.00    -0.273 OA
BRANCH   7  10
ATOM     10  CA  LEU A   4     -24.863  -5.786  49.316  0.00  0.00    +0.137 C 
BRANCH  10  11
ATOM     11  C   LEU A   4     -24.363  -7.078  50.004  0.00  0.00    +0.227 C 
ATOM     12  O   LEU A   4     -24.937  -8.152  49.829  0.00  0.00    -0.286 OA
ENDBRANCH  10  11
BRANCH  10  13
ATOM     13  CB  LEU A   4     -25.950  -6.062  48.258  0.00  0.00    +0.028 C 
BRANCH  13  14
ATOM     14  CG  LEU A   4     -26.448  -4.864  47.461  0.00  0.00    +0.002 C 
ATOM     15  CD2 LEU A   4     -26.840  -3.623  48.314  0.00  0.00    +0.000 C 
ATOM     16  CD1 LEU A   4     -27.621  -5.318  46.604  0.00  0.00    +0.000 C 
ENDBRANCH  13  14
ENDBRANCH  10  13
ENDBRANCH   7  10
ENDBRANCH   5   6
BRANCH   5  17
ATOM     17  CB  ASP A   3     -22.576  -3.793  45.873  0.00  0.00    +0.143 C 
BRANCH  17  18
ATOM     18  CG  ASP A   3     -23.483  -2.602  46.199  0.00  0.00    +0.367 C 
ATOM     19  OD2 ASP A   3     -23.851  -2.416  47.375  0.00  0.00    -0.246 OA
ATOM     20  OD1 ASP A   3     -23.801  -1.822  45.281  0.00  0.00    -0.246 OA
ENDBRANCH  17  18
ENDBRANCH   5  17
ENDBRANCH   3   5
BRANCH   1  21
ATOM     21  CA  LEU A   2     -18.323  -5.354  46.498  0.00  0.00    +0.149 C 
BRANCH  21  23
ATOM     22  C   LEU A   1     -17.732  -4.957  44.096  0.00  0.00    +0.238 C 
ATOM     23  N   LEU A   2     -17.564  -4.679  45.393  0.00  0.00    -0.297 N 
ATOM     24  H   LEU A   2     -16.866  -3.952  45.651  0.00  0.00    +0.150 HD
ATOM     25  O   LEU A   1     -18.486  -5.853  43.673  0.00  0.00    -0.274 OA
BRANCH  22  26
ATOM     26  CA  LEU A   1     -16.925  -4.126  43.112  0.00  0.00    +0.145 C 
BRANCH  26  27
ATOM     27  N   LEU A   1     -15.967  -4.963  42.393  0.00  0.00    -0.238 NA
ATOM     28  H   LEU A   1     -16.314  -5.692  41.737  0.00  0.00    +0.142 HD
ENDBRANCH  26  27
BRANCH  26  29
ATOM     29  CB  LEU A   1     -17.854  -3.385  42.169  0.00  0.00    +0.026 C 
BRANCH  29  30
ATOM     30  CG  LEU A   1     -18.901  -2.456  42.774  0.00  0.00    +0.002 C 
ATOM     31  CD2 LEU A   1     -18.225  -1.285  43.632  0.00  0.00    +0.000 C 
ATOM     32  CD1 LEU A   1     -19.750  -1.884  41.642  0.00  0.00    +0.000 C 
ENDBRANCH  29  30
ENDBRANCH  26  29
ENDBRANCH  22  26
ENDBRANCH  21  23
BRANCH  21  33
ATOM     33  CB  LEU A   2     -17.469  -5.404  47.774  0.00  0.00    +0.029 C 
BRANCH  33  34
ATOM     34  CG  LEU A   2     -16.213  -6.297  47.855  0.00  0.00    +0.002 C 
ATOM     35  CD2 LEU A   2     -15.651  -6.288  49.283  0.00  0.00    +0.000 C 
ATOM     36  CD1 LEU A   2     -15.153  -5.970  46.876  0.00  0.00    +0.000 C 
ENDBRANCH  33  34
ENDBRANCH  21  33
ENDBRANCH   1  21
TORSDOF 16
REMARK  Name = ../refined-set-2016/4fai/4fai_pocket.pdb
REMARK  148 active torsions:
REMARK  status: ('A' for Active; 'I' for Inactive)
REMARK    1  A    between atoms: _1  and  _3
REMARK    2  A    between atoms: _3  and  _4
REMARK    3  A    between atoms: _3  and  _6
REMARK    4  A    between atoms: _6  and  _7
REMARK    5  A    between atoms: _12  and  _14
REMARK    6  A    between atoms: _14  and  _15
REMARK    7  A    between atoms: _14  and  _17
REMARK    8  A    between atoms: _17  and  _18
REMARK    9  A    between atoms: _18  and  _19
REMARK   10  A    between atoms: _19  and  _20
REMARK   11  A    between atoms: _20  and  _21
REMARK   12  A    between atoms: _25  and  _27
REMARK   13  A    between atoms: _27  and  _28
REMARK   14  A    between atoms: _27  and  _30
REMARK   15  A    between atoms: _30  and  _31
REMARK   16  A    between atoms: _37  and  _39
REMARK   17  A    between atoms: _39  and  _40
REMARK   18  A    between atoms: _39  and  _42
REMARK   19  A    between atoms: _42  and  _43
REMARK   20  A    between atoms: _46  and  _48
REMARK   21  A    between atoms: _48  and  _49
REMARK   22  A    between atoms: _48  and  _51
REMARK   23  A    between atoms: _51  and  _52
REMARK   24  A    between atoms: _52  and  _54
REMARK   25  A    between atoms: _54  and  ZN_361
REMARK   26  A    between atoms: _55  and  _57
REMARK   27  A    between atoms: _57  and  _58
REMARK   28  A    between atoms: _57  and  _60
REMARK   29  A    between atoms: _60  and  _61
REMARK   30  A    between atoms: _63  and  _65
REMARK   31  A    between atoms: _65  and  _66
REMARK   32  A    between atoms: _65  and  _68
REMARK   33  A    between atoms: _68  and  _69
REMARK   34  A    between atoms: _69  and  _70
REMARK   35  A    between atoms: _73  and  _75
REMARK   36  A    between atoms: _75  and  _76
REMARK   37  A    between atoms: _75  and  _78
REMARK   38  A    between atoms: _78  and  _79
REMARK   39  A    between atoms: _79  and  _80
REMARK   40  A    between atoms: _80  and  _81
REMARK   41  A    between atoms: _81  and  ZN_361
REMARK   42  A    between atoms: _83  and  _85
REMARK   43  A    between atoms: _85  and  _86
REMARK   44  A    between atoms: _89  and  _91
REMARK   45  A    between atoms: _91  and  _92
REMARK   46  A    between atoms: _91  and  _94
REMARK   47  A    between atoms: _94  and  _95
REMARK   48  A    between atoms: _105  and  _107
REMARK   49  A    between atoms: _107  and  _108
REMARK   50  A    between atoms: _107  and  _110
REMARK   51  A    between atoms: _110  and  _111
REMARK   52  A    between atoms: _113  and  _115
REMARK   53  A    between atoms: _115  and  _116
REMARK   54  A    between atoms: _115  and  _118
REMARK   55  A    between atoms: _118  and  _119
REMARK   56  A    between atoms: _122  and  _124
REMARK   57  A    between atoms: _124  and  _125
REMARK   58  A    between atoms: _124  and  _127
REMARK   59  A    between atoms: _127  and  _128
REMARK   60  A    between atoms: _131  and  _133
REMARK   61  A    between atoms: _133  and  _134
REMARK   62  A    between atoms: _133  and  _136
REMARK   63  A    between atoms: _136  and  _137
REMARK   64  A    between atoms: _140  and  _142
REMARK   65  A    between atoms: _142  and  _143
REMARK   66  A    between atoms: _142  and  _145
REMARK   67  A    between atoms: _145  and  _146
REMARK   68  A    between atoms: _149  and  _151
REMARK   69  A    between atoms: _151  and  _152
REMARK   70  A    between atoms: _151  and  _154
REMARK   71  A    between atoms: _154  and  _155
REMARK   72  A    between atoms: _158  and  _160
REMARK   73  A    between atoms: _160  and  _161
REMARK   74  A    between atoms: _160  and  _163
REMARK   75  A    between atoms: _163  and  _164
REMARK   76  A    between atoms: _170  and  _172
REMARK   77  A    between atoms: _172  and  _173
REMARK   78  A    between atoms: _172  and  _175
REMARK   79  A    between atoms: _175  and  _176
REMARK   80  A    between atoms: _176  and  _177
REMARK   81  A    between atoms: _179  and  _181
REMARK   82  A    between atoms: _181  and  _182
REMARK   83  A    between atoms: _181  and  _184
REMARK   84  A    between atoms: _184  and  _185
REMARK   85  A    between atoms: _187  and  _189
REMARK   86  A    between atoms: _189  and  _190
REMARK   87  A    between atoms: _189  and  _192
REMARK   88  A    between atoms: _192  and  _193
REMARK   89  A    between atoms: _199  and  _201
REMARK   90  A    between atoms: _201  and  _202
REMARK   91  A    between atoms: _201  and  _204
REMARK   92  A    between atoms: _204  and  _205
REMARK   93  A    between atoms: _208  and  _210
REMARK   94  A    between atoms: _210  and  _211
REMARK   95  A    between atoms: _210  and  _213
REMARK   96  A    between atoms: _213  and  _214
REMARK   97  A    between atoms: _214  and  _215
REMARK   98  A    between atoms: _218  and  _220
REMARK   99  A    between atoms: _220  and  _221
REMARK  100  A    between atoms: _220  and  _223
REMARK  101  A    between atoms: _223  and  _224
REMARK  102  A    between atoms: _227  and  _229
REMARK  103  A    between atoms: _229  and  _230
REMARK  104  A    between atoms: _229  and  _232
REMARK  105  A    between atoms: _232  and  _233
REMARK  106  A    between atoms: _236  and  _238
REMARK  107  A    between atoms: _238  and  _239
REMARK  108  A    between atoms: _238  and  _241
REMARK  109  A    between atoms: _241  and  _242
REMARK  110  A    between atoms: _247  and  _249
REMARK  111  A    between atoms: _249  and  _250
REMARK  112  A    between atoms: _249  and  _252
REMARK  113  A    between atoms: _252  and  _253
REMARK  114  A    between atoms: _256  and  _258
REMARK  115  A    between atoms: _258  and  _259
REMARK  116  A    between atoms: _258  and  _261
REMARK  117  A    between atoms: _261  and  _262
REMARK  118  A    between atoms: _267  and  _269
REMARK  119  A    between atoms: _269  and  _270
REMARK  120  A    between atoms: _269  and  _272
REMARK  121  A    between atoms: _272  and  _273
REMARK  122  A    between atoms: _277  and  _278
REMARK  123  A    between atoms: _283  and  _285
REMARK  124  A    between atoms: _285  and  _286
REMARK  125  A    between atoms: _285  and  _288
REMARK  126  A    between atoms: _292  and  _293
REMARK  127  A    between atoms: _298  and  _300
REMARK  128  A    between atoms: _300  and  _301
REMARK  129  A    between atoms: _300  and  _303
REMARK  130  A    between atoms: _303  and  _304
REMARK  131  A    between atoms: _311  and  _312
REMARK  132  A    between atoms: _317  and  _319
REMARK  133  A    between atoms: _319  and  _320
REMARK  134  A    between atoms: _319  and  _322
REMARK  135  A    between atoms: _322  and  _323
REMARK  136  A    between atoms: _325  and  _327
REMARK  137  A    between atoms: _327  and  _328
REMARK  138  A    between atoms: _327  and  _330
REMARK  139  A    between atoms: _330  and  _331
REMARK  140  A    between atoms: _341  and  _343
REMARK  141  A    between atoms: _343  and  _344
REMARK  142  A    between atoms: _343  and  _346
REMARK  143  A    between atoms: _346  and  _347
REMARK  144  A    between atoms: _351  and  ZN_361
REMARK  145  A    between atoms: _352  and  _354
REMARK  146  A    between atoms: _354  and  _355
REMARK  147  A    between atoms: _354  and  _357
REMARK  148  A    between atoms: _357  and  _358
REMARK                            x       y       z     vdW  Elec       q    Type
REMARK                         _______ _______ _______ _____ _____    ______ ____
ROOT
ATOM      1  CB  PHE A   1     -21.920 -10.140  35.698  0.00  0.00    +0.051 C 
ENDROOT
BRANCH   1   2
ATOM      2  CG  PHE A   1     -22.788 -10.326  36.902  0.00  0.00    -0.020 A 
ATOM      3  CD2 PHE A   1     -22.264 -10.189  38.168  0.00  0.00    -0.004 A 
ATOM      4  CE2 PHE A   1     -23.041 -10.296  39.264  0.00  0.00    -0.000 A 
ATOM      5  CZ  PHE A   1     -24.416 -10.542  39.146  0.00  0.00    -0.000 A 
ATOM      6  CE1 PHE A   1     -24.969 -10.655  37.904  0.00  0.00    -0.000 A 
ATOM      7  CD1 PHE A   1     -24.161 -10.553  36.773  0.00  0.00    -0.004 A 
ENDBRANCH   1   2
BRANCH   1   8
ATOM      8  CA  PHE A   1     -21.503 -11.431  35.020  0.00  0.00    +0.137 C 
BRANCH   8   9
ATOM      9  N   PHE A   1     -20.749 -12.282  35.936  0.00  0.00    -0.239 NA
ATOM     10  H   PHE A   1     -20.037 -11.857  36.563  0.00  0.00    +0.142 HD
ENDBRANCH   8   9
BRANCH   8  11
ATOM     11  C   PHE A   1     -20.809 -11.101  33.694  0.00  0.00    +0.224 C 
ATOM     12  O   PHE A   1     -21.489 -10.698  32.734  0.00  0.00    -0.287 OA
ENDBRANCH   8  11
ENDBRANCH   1   8
TORSDOF 4
REMARK  Name = ../refined-set-2016/4fai/4fai_pocket.pdb
REMARK  148 active torsions:
REMARK  status: ('A' for Active; 'I' for Inactive)
REMARK    1  A    between atoms: _1  and  _3
REMARK    2  A    between atoms: _3  and  _4
REMARK    3  A    between atoms: _3  and  _6
REMARK    4  A    between atoms: _6  and  _7
REMARK    5  A    between atoms: _12  and  _14
REMARK    6  A    between atoms: _14  and  _15
REMARK    7  A    between atoms: _14  and  _17
REMARK    8  A    between atoms: _17  and  _18
REMARK    9  A    between atoms: _18  and  _19
REMARK   10  A    between atoms: _19  and  _20
REMARK   11  A    between atoms: _20  and  _21
REMARK   12  A    between atoms: _25  and  _27
REMARK   13  A    between atoms: _27  and  _28
REMARK   14  A    between atoms: _27  and  _30
REMARK   15  A    between atoms: _30  and  _31
REMARK   16  A    between atoms: _37  and  _39
REMARK   17  A    between atoms: _39  and  _40
REMARK   18  A    between atoms: _39  and  _42
REMARK   19  A    between atoms: _42  and  _43
REMARK   20  A    between atoms: _46  and  _48
REMARK   21  A    between atoms: _48  and  _49
REMARK   22  A    between atoms: _48  and  _51
REMARK   23  A    between atoms: _51  and  _52
REMARK   24  A    between atoms: _52  and  _54
REMARK   25  A    between atoms: _54  and  ZN_361
REMARK   26  A    between atoms: _55  and  _57
REMARK   27  A    between atoms: _57  and  _58
REMARK   28  A    between atoms: _57  and  _60
REMARK   29  A    between atoms: _60  and  _61
REMARK   30  A    between atoms: _63  and  _65
REMARK   31  A    between atoms: _65  and  _66
REMARK   32  A    between atoms: _65  and  _68
REMARK   33  A    between atoms: _68  and  _69
REMARK   34  A    between atoms: _69  and  _70
REMARK   35  A    between atoms: _73  and  _75
REMARK   36  A    between atoms: _75  and  _76
REMARK   37  A    between atoms: _75  and  _78
REMARK   38  A    between atoms: _78  and  _79
REMARK   39  A    between atoms: _79  and  _80
REMARK   40  A    between atoms: _80  and  _81
REMARK   41  A    between atoms: _81  and  ZN_361
REMARK   42  A    between atoms: _83  and  _85
REMARK   43  A    between atoms: _85  and  _86
REMARK   44  A    between atoms: _89  and  _91
REMARK   45  A    between atoms: _91  and  _92
REMARK   46  A    between atoms: _91  and  _94
REMARK   47  A    between atoms: _94  and  _95
REMARK   48  A    between atoms: _105  and  _107
REMARK   49  A    between atoms: _107  and  _108
REMARK   50  A    between atoms: _107  and  _110
REMARK   51  A    between atoms: _110  and  _111
REMARK   52  A    between atoms: _113  and  _115
REMARK   53  A    between atoms: _115  and  _116
REMARK   54  A    between atoms: _115  and  _118
REMARK   55  A    between atoms: _118  and  _119
REMARK   56  A    between atoms: _122  and  _124
REMARK   57  A    between atoms: _124  and  _125
REMARK   58  A    between atoms: _124  and  _127
REMARK   59  A    between atoms: _127  and  _128
REMARK   60  A    between atoms: _131  and  _133
REMARK   61  A    between atoms: _133  and  _134
REMARK   62  A    between atoms: _133  and  _136
REMARK   63  A    between atoms: _136  and  _137
REMARK   64  A    between atoms: _140  and  _142
REMARK   65  A    between atoms: _142  and  _143
REMARK   66  A    between atoms: _142  and  _145
REMARK   67  A    between atoms: _145  and  _146
REMARK   68  A    between atoms: _149  and  _151
REMARK   69  A    between atoms: _151  and  _152
REMARK   70  A    between atoms: _151  and  _154
REMARK   71  A    between atoms: _154  and  _155
REMARK   72  A    between atoms: _158  and  _160
REMARK   73  A    between atoms: _160  and  _161
REMARK   74  A    between atoms: _160  and  _163
REMARK   75  A    between atoms: _163  and  _164
REMARK   76  A    between atoms: _170  and  _172
REMARK   77  A    between atoms: _172  and  _173
REMARK   78  A    between atoms: _172  and  _175
REMARK   79  A    between atoms: _175  and  _176
REMARK   80  A    between atoms: _176  and  _177
REMARK   81  A    between atoms: _179  and  _181
REMARK   82  A    between atoms: _181  and  _182
REMARK   83  A    between atoms: _181  and  _184
REMARK   84  A    between atoms: _184  and  _185
REMARK   85  A    between atoms: _187  and  _189
REMARK   86  A    between atoms: _189  and  _190
REMARK   87  A    between atoms: _189  and  _192
REMARK   88  A    between atoms: _192  and  _193
REMARK   89  A    between atoms: _199  and  _201
REMARK   90  A    between atoms: _201  and  _202
REMARK   91  A    between atoms: _201  and  _204
REMARK   92  A    between atoms: _204  and  _205
REMARK   93  A    between atoms: _208  and  _210
REMARK   94  A    between atoms: _210  and  _211
REMARK   95  A    between atoms: _210  and  _213
REMARK   96  A    between atoms: _213  and  _214
REMARK   97  A    between atoms: _214  and  _215
REMARK   98  A    between atoms: _218  and  _220
REMARK   99  A    between atoms: _220  and  _221
REMARK  100  A    between atoms: _220  and  _223
REMARK  101  A    between atoms: _223  and  _224
REMARK  102  A    between atoms: _227  and  _229
REMARK  103  A    between atoms: _229  and  _230
REMARK  104  A    between atoms: _229  and  _232
REMARK  105  A    between atoms: _232  and  _233
REMARK  106  A    between atoms: _236  and  _238
REMARK  107  A    between atoms: _238  and  _239
REMARK  108  A    between atoms: _238  and  _241
REMARK  109  A    between atoms: _241  and  _242
REMARK  110  A    between atoms: _247  and  _249
REMARK  111  A    between atoms: _249  and  _250
REMARK  112  A    between atoms: _249  and  _252
REMARK  113  A    between atoms: _252  and  _253
REMARK  114  A    between atoms: _256  and  _258
REMARK  115  A    between atoms: _258  and  _259
REMARK  116  A    between atoms: _258  and  _261
REMARK  117  A    between atoms: _261  and  _262
REMARK  118  A    between atoms: _267  and  _269
REMARK  119  A    between atoms: _269  and  _270
REMARK  120  A    between atoms: _269  and  _272
REMARK  121  A    between atoms: _272  and  _273
REMARK  122  A    between atoms: _277  and  _278
REMARK  123  A    between atoms: _283  and  _285
REMARK  124  A    between atoms: _285  and  _286
REMARK  125  A    between atoms: _285  and  _288
REMARK  126  A    between atoms: _292  and  _293
REMARK  127  A    between atoms: _298  and  _300
REMARK  128  A    between atoms: _300  and  _301
REMARK  129  A    between atoms: _300  and  _303
REMARK  130  A    between atoms: _303  and  _304
REMARK  131  A    between atoms: _311  and  _312
REMARK  132  A    between atoms: _317  and  _319
REMARK  133  A    between atoms: _319  and  _320
REMARK  134  A    between atoms: _319  and  _322
REMARK  135  A    between atoms: _322  and  _323
REMARK  136  A    between atoms: _325  and  _327
REMARK  137  A    between atoms: _327  and  _328
REMARK  138  A    between atoms: _327  and  _330
REMARK  139  A    between atoms: _330  and  _331
REMARK  140  A    between atoms: _341  and  _343
REMARK  141  A    between atoms: _343  and  _344
REMARK  142  A    between atoms: _343  and  _346
REMARK  143  A    between atoms: _346  and  _347
REMARK  144  A    between atoms: _351  and  ZN_361
REMARK  145  A    between atoms: _352  and  _354
REMARK  146  A    between atoms: _354  and  _355
REMARK  147  A    between atoms: _354  and  _357
REMARK  148  A    between atoms: _357  and  _358
REMARK                            x       y       z     vdW  Elec       q    Type
REMARK                         _______ _______ _______ _____ _____    ______ ____
ROOT
ATOM      1  CA  MET A   1     -25.584 -14.842  34.399  0.00  0.00    +0.134 C 
ENDROOT
BRANCH   1   2
ATOM      2  N   MET A   1     -24.275 -15.422  34.571  0.00  0.00    -0.239 NA
ATOM      3  H   MET A   1     -23.495 -14.811  34.887  0.00  0.00    +0.142 HD
ENDBRANCH   1   2
BRANCH   1   4
ATOM      4  C   MET A   1     -25.474 -13.949  33.184  0.00  0.00    +0.224 C 
ATOM      5  O   MET A   1     -24.800 -12.917  33.215  0.00  0.00    -0.287 OA
ENDBRANCH   1   4
BRANCH   1   6
ATOM      6  CB  MET A   1     -25.986 -14.041  35.645  0.00  0.00    +0.037 C 
BRANCH   6   7
ATOM      7  CG  MET A   1     -27.475 -13.734  35.765  0.00  0.00    +0.059 C 
BRANCH   7   8
ATOM      8  SD  MET A   1     -27.899 -13.283  37.464  0.00  0.00    -0.139 S 
ATOM      9  CE  MET A   1     -28.422 -14.849  38.177  0.00  0.00    +0.069 C 
ENDBRANCH   7   8
ENDBRANCH   6   7
ENDBRANCH   1   6
TORSDOF 5
REMARK  Name = ../refined-set-2016/4fai/4fai_pocket.pdb
REMARK  148 active torsions:
REMARK  status: ('A' for Active; 'I' for Inactive)
REMARK    1  A    between atoms: _1  and  _3
REMARK    2  A    between atoms: _3  and  _4
REMARK    3  A    between atoms: _3  and  _6
REMARK    4  A    between atoms: _6  and  _7
REMARK    5  A    between atoms: _12  and  _14
REMARK    6  A    between atoms: _14  and  _15
REMARK    7  A    between atoms: _14  and  _17
REMARK    8  A    between atoms: _17  and  _18
REMARK    9  A    between atoms: _18  and  _19
REMARK   10  A    between atoms: _19  and  _20
REMARK   11  A    between atoms: _20  and  _21
REMARK   12  A    between atoms: _25  and  _27
REMARK   13  A    between atoms: _27  and  _28
REMARK   14  A    between atoms: _27  and  _30
REMARK   15  A    between atoms: _30  and  _31
REMARK   16  A    between atoms: _37  and  _39
REMARK   17  A    between atoms: _39  and  _40
REMARK   18  A    between atoms: _39  and  _42
REMARK   19  A    between atoms: _42  and  _43
REMARK   20  A    between atoms: _46  and  _48
REMARK   21  A    between atoms: _48  and  _49
REMARK   22  A    between atoms: _48  and  _51
REMARK   23  A    between atoms: _51  and  _52
REMARK   24  A    between atoms: _52  and  _54
REMARK   25  A    between atoms: _54  and  ZN_361
REMARK   26  A    between atoms: _55  and  _57
REMARK   27  A    between atoms: _57  and  _58
REMARK   28  A    between atoms: _57  and  _60
REMARK   29  A    between atoms: _60  and  _61
REMARK   30  A    between atoms: _63  and  _65
REMARK   31  A    between atoms: _65  and  _66
REMARK   32  A    between atoms: _65  and  _68
REMARK   33  A    between atoms: _68  and  _69
REMARK   34  A    between atoms: _69  and  _70
REMARK   35  A    between atoms: _73  and  _75
REMARK   36  A    between atoms: _75  and  _76
REMARK   37  A    between atoms: _75  and  _78
REMARK   38  A    between atoms: _78  and  _79
REMARK   39  A    between atoms: _79  and  _80
REMARK   40  A    between atoms: _80  and  _81
REMARK   41  A    between atoms: _81  and  ZN_361
REMARK   42  A    between atoms: _83  and  _85
REMARK   43  A    between atoms: _85  and  _86
REMARK   44  A    between atoms: _89  and  _91
REMARK   45  A    between atoms: _91  and  _92
REMARK   46  A    between atoms: _91  and  _94
REMARK   47  A    between atoms: _94  and  _95
REMARK   48  A    between atoms: _105  and  _107
REMARK   49  A    between atoms: _107  and  _108
REMARK   50  A    between atoms: _107  and  _110
REMARK   51  A    between atoms: _110  and  _111
REMARK   52  A    between atoms: _113  and  _115
REMARK   53  A    between atoms: _115  and  _116
REMARK   54  A    between atoms: _115  and  _118
REMARK   55  A    between atoms: _118  and  _119
REMARK   56  A    between atoms: _122  and  _124
REMARK   57  A    between atoms: _124  and  _125
REMARK   58  A    between atoms: _124  and  _127
REMARK   59  A    between atoms: _127  and  _128
REMARK   60  A    between atoms: _131  and  _133
REMARK   61  A    between atoms: _133  and  _134
REMARK   62  A    between atoms: _133  and  _136
REMARK   63  A    between atoms: _136  and  _137
REMARK   64  A    between atoms: _140  and  _142
REMARK   65  A    between atoms: _142  and  _143
REMARK   66  A    between atoms: _142  and  _145
REMARK   67  A    between atoms: _145  and  _146
REMARK   68  A    between atoms: _149  and  _151
REMARK   69  A    between atoms: _151  and  _152
REMARK   70  A    between atoms: _151  and  _154
REMARK   71  A    between atoms: _154  and  _155
REMARK   72  A    between atoms: _158  and  _160
REMARK   73  A    between atoms: _160  and  _161
REMARK   74  A    between atoms: _160  and  _163
REMARK   75  A    between atoms: _163  and  _164
REMARK   76  A    between atoms: _170  and  _172
REMARK   77  A    between atoms: _172  and  _173
REMARK   78  A    between atoms: _172  and  _175
REMARK   79  A    between atoms: _175  and  _176
REMARK   80  A    between atoms: _176  and  _177
REMARK   81  A    between atoms: _179  and  _181
REMARK   82  A    between atoms: _181  and  _182
REMARK   83  A    between atoms: _181  and  _184
REMARK   84  A    between atoms: _184  and  _185
REMARK   85  A    between atoms: _187  and  _189
REMARK   86  A    between atoms: _189  and  _190
REMARK   87  A    between atoms: _189  and  _192
REMARK   88  A    between atoms: _192  and  _193
REMARK   89  A    between atoms: _199  and  _201
REMARK   90  A    between atoms: _201  and  _202
REMARK   91  A    between atoms: _201  and  _204
REMARK   92  A    between atoms: _204  and  _205
REMARK   93  A    between atoms: _208  and  _210
REMARK   94  A    between atoms: _210  and  _211
REMARK   95  A    between atoms: _210  and  _213
REMARK   96  A    between atoms: _213  and  _214
REMARK   97  A    between atoms: _214  and  _215
REMARK   98  A    between atoms: _218  and  _220
REMARK   99  A    between atoms: _220  and  _221
REMARK  100  A    between atoms: _220  and  _223
REMARK  101  A    between atoms: _223  and  _224
REMARK  102  A    between atoms: _227  and  _229
REMARK  103  A    between atoms: _229  and  _230
REMARK  104  A    between atoms: _229  and  _232
REMARK  105  A    between atoms: _232  and  _233
REMARK  106  A    between atoms: _236  and  _238
REMARK  107  A    between atoms: _238  and  _239
REMARK  108  A    between atoms: _238  and  _241
REMARK  109  A    between atoms: _241  and  _242
REMARK  110  A    between atoms: _247  and  _249
REMARK  111  A    between atoms: _249  and  _250
REMARK  112  A    between atoms: _249  and  _252
REMARK  113  A    between atoms: _252  and  _253
REMARK  114  A    between atoms: _256  and  _258
REMARK  115  A    between atoms: _258  and  _259
REMARK  116  A    between atoms: _258  and  _261
REMARK  117  A    between atoms: _261  and  _262
REMARK  118  A    between atoms: _267  and  _269
REMARK  119  A    between atoms: _269  and  _270
REMARK  120  A    between atoms: _269  and  _272
REMARK  121  A    between atoms: _272  and  _273
REMARK  122  A    between atoms: _277  and  _278
REMARK  123  A    between atoms: _283  and  _285
REMARK  124  A    between atoms: _285  and  _286
REMARK  125  A    between atoms: _285  and  _288
REMARK  126  A    between atoms: _292  and  _293
REMARK  127  A    between atoms: _298  and  _300
REMARK  128  A    between atoms: _300  and  _301
REMARK  129  A    between atoms: _300  and  _303
REMARK  130  A    between atoms: _303  and  _304
REMARK  131  A    between atoms: _311  and  _312
REMARK  132  A    between atoms: _317  and  _319
REMARK  133  A    between atoms: _319  and  _320
REMARK  134  A    between atoms: _319  and  _322
REMARK  135  A    between atoms: _322  and  _323
REMARK  136  A    between atoms: _325  and  _327
REMARK  137  A    between atoms: _327  and  _328
REMARK  138  A    between atoms: _327  and  _330
REMARK  139  A    between atoms: _330  and  _331
REMARK  140  A    between atoms: _341  and  _343
REMARK  141  A    between atoms: _343  and  _344
REMARK  142  A    between atoms: _343  and  _346
REMARK  143  A    between atoms: _346  and  _347
REMARK  144  A    between atoms: _351  and  ZN_361
REMARK  145  A    between atoms: _352  and  _354
REMARK  146  A    between atoms: _354  and  _355
REMARK  147  A    between atoms: _354  and  _357
REMARK  148  A    between atoms: _357  and  _358
REMARK                            x       y       z     vdW  Elec       q    Type
REMARK                         _______ _______ _______ _____ _____    ______ ____
ROOT
ATOM      1  C   GLU A   4     -25.828  -0.783  38.785  0.00  0.00    +0.241 C 
ATOM      2  O   GLU A   4     -26.427  -1.068  39.815  0.00  0.00    -0.273 OA
ATOM      3  N   ASP A   5     -24.612  -0.259  38.783  0.00  0.00    -0.297 N 
ATOM      4  H   ASP A   5     -24.165  -0.040  37.870  0.00  0.00    +0.150 HD
ENDROOT
BRANCH   3   5
ATOM      5  CA  ASP A   5     -23.874   0.023  40.010  0.00  0.00    +0.160 C 
BRANCH   5   6
ATOM      6  C   ASP A   5     -22.680   0.915  39.616  0.00  0.00    +0.241 C 
ATOM      7  N   ASP A   6     -21.816   1.187  40.584  0.00  0.00    -0.297 N 
ATOM      8  H   ASP A   6     -21.991   0.798  41.533  0.00  0.00    +0.150 HD
ATOM      9  O   ASP A   5     -22.550   1.339  38.441  0.00  0.00    -0.273 OA
BRANCH   7  10
ATOM     10  CA  ASP A   6     -20.625   2.012  40.373  0.00  0.00    +0.160 C 
BRANCH  10  11
ATOM     11  C   ASP A   6     -19.736   1.559  39.210  0.00  0.00    +0.241 C 
ATOM     12  N   HIS A   7     -19.784   0.283  38.846  0.00  0.00    -0.297 N 
ATOM     13  H   HIS A   7     -20.434  -0.373  39.324  0.00  0.00    +0.150 HD
ATOM     14  O   ASP A   6     -18.988   2.353  38.669  0.00  0.00    -0.273 OA
BRANCH  12  15
ATOM     15  CA  HIS A   7     -18.914  -0.198  37.764  0.00  0.00    +0.155 C 
BRANCH  15  16
ATOM     16  C   HIS A   7     -19.311   0.278  36.354  0.00  0.00    +0.241 C 
ATOM     17  N   ILE A   8     -20.569   0.679  36.165  0.00  0.00    -0.298 N 
ATOM     18  H   ILE A   8     -21.188   0.804  36.992  0.00  0.00    +0.150 HD
ATOM     19  O   HIS A   7     -18.497   0.206  35.443  0.00  0.00    -0.273 OA
BRANCH  17  20
ATOM     20  CA  ILE A   8     -21.108   0.949  34.825  0.00  0.00    +0.137 C 
BRANCH  20  21
ATOM     21  CB  ILE A   8     -22.603   1.384  34.904  0.00  0.00    +0.026 C 
ATOM     22  CG2 ILE A   8     -23.090   1.955  33.564  0.00  0.00    +0.002 C 
BRANCH  21  23
ATOM     23  CG1 ILE A   8     -23.469   0.194  35.353  0.00  0.00    +0.002 C 
ATOM     24  CD1 ILE A   8     -23.664  -0.922  34.348  0.00  0.00    +0.000 C 
ENDBRANCH  21  23
ENDBRANCH  20  21
BRANCH  20  25
ATOM     25  C   ILE A   8     -20.285   1.922  33.959  0.00  0.00    +0.227 C 
ATOM     26  O   ILE A   8     -19.969   1.592  32.779  0.00  0.00    -0.286 OA
ENDBRANCH  20  25
ENDBRANCH  17  20
ENDBRANCH  15  16
BRANCH  15  27
ATOM     27  CB  HIS A   7     -18.868  -1.730  37.759  0.00  0.00    +0.076 C 
BRANCH  27  28
ATOM     28  CG  HIS A   7     -20.179  -2.344  37.408  0.00  0.00    +0.082 A 
ATOM     29  ND1 HIS A   7     -21.310  -2.127  38.155  0.00  0.00    -0.227 NA
ATOM     30  CE1 HIS A   7     -22.327  -2.764  37.610  0.00  0.00    +0.199 A 
ATOM     31  NE2 HIS A   7     -21.897  -3.375  36.523  0.00  0.00    -0.221 NA
ATOM     32  CD2 HIS A   7     -20.556  -3.113  36.364  0.00  0.00    +0.115 A 
ENDBRANCH  27  28
ENDBRANCH  15  27
ENDBRANCH  12  15
ENDBRANCH  10  11
BRANCH  10  33
ATOM     33  CB  ASP A   6     -19.778   2.055  41.650  0.00  0.00    +0.143 C 
BRANCH  33  34
ATOM     34  CG  ASP A   6     -20.366   2.973  42.729  0.00  0.00    +0.367 C 
ATOM     35  OD2 ASP A   6     -20.268   2.611  43.904  0.00  0.00    -0.246 OA
ATOM     36  OD1 ASP A   6     -20.896   4.047  42.428  0.00  0.00    -0.246 OA
ENDBRANCH  33  34
ENDBRANCH  10  33
ENDBRANCH   7  10
ENDBRANCH   5   6
BRANCH   5  37
ATOM     37  CB  ASP A   5     -23.387  -1.298  40.651  0.00  0.00    +0.143 C 
BRANCH  37  38
ATOM     38  CG  ASP A   5     -23.198  -1.223  42.172  0.00  0.00    +0.367 C 
ATOM     39  OD2 ASP A   5     -23.114  -2.311  42.813  0.00  0.00    -0.246 OA
ATOM     40  OD1 ASP A   5     -23.134  -0.121  42.757  0.00  0.00    -0.246 OA
ENDBRANCH  37  38
ENDBRANCH   5  37
ENDBRANCH   3   5
BRANCH   1  41
ATOM     41  CA  GLU A   4     -26.457  -1.067  37.413  0.00  0.00    +0.149 C 
BRANCH  41  43
ATOM     42  C   ILE A   3     -26.607  -3.464  37.107  0.00  0.00    +0.241 C 
ATOM     43  N   GLU A   4     -27.197  -2.319  37.418  0.00  0.00    -0.297 N 
ATOM     44  H   GLU A   4     -28.206  -2.316  37.670  0.00  0.00    +0.150 HD
ATOM     45  O   ILE A   3     -25.402  -3.538  36.837  0.00  0.00    -0.273 OA
BRANCH  42  46
ATOM     46  CA  ILE A   3     -27.499  -4.706  37.100  0.00  0.00    +0.149 C 
BRANCH  46  48
ATOM     47  C   PHE A   2     -28.149  -4.836  34.729  0.00  0.00    +0.241 C 
ATOM     48  N   ILE A   3     -27.483  -5.357  35.768  0.00  0.00    -0.297 N 
ATOM     49  H   ILE A   3     -26.943  -6.236  35.638  0.00  0.00    +0.150 HD
ATOM     50  O   PHE A   2     -28.863  -3.819  34.804  0.00  0.00    -0.273 OA
BRANCH  47  51
ATOM     51  CA  PHE A   2     -28.009  -5.583  33.406  0.00  0.00    +0.153 C 
BRANCH  51  53
ATOM     52  C   SER A   1     -27.503  -7.950  33.266  0.00  0.00    +0.241 C 
ATOM     53  N   PHE A   2     -28.345  -6.987  33.610  0.00  0.00    -0.297 N 
ATOM     54  H   PHE A   2     -29.262  -7.237  34.033  0.00  0.00    +0.150 HD
ATOM     55  O   SER A   1     -26.391  -7.731  32.767  0.00  0.00    -0.274 OA
BRANCH  52  56
ATOM     56  CA  SER A   1     -27.991  -9.373  33.478  0.00  0.00    +0.174 C 
BRANCH  56  57
ATOM     57  N   SER A   1     -27.806 -10.043  32.208  0.00  0.00    -0.236 NA
ATOM     58  H   SER A   1     -26.865 -10.417  31.973  0.00  0.00    +0.142 HD
ENDBRANCH  56  57
BRANCH  56  59
ATOM     59  CB  SER A   1     -27.172 -10.049  34.576  0.00  0.00    +0.163 C 
BRANCH  59  60
ATOM     60  OG  SER A   1     -27.739  -9.794  35.846  0.00  0.00    -0.380 OA
ATOM     61  H   SER A   1     -27.196 -10.239  36.544  0.00  0.00    +0.211 HD
ENDBRANCH  59  60
ENDBRANCH  56  59
ENDBRANCH  52  56
ENDBRANCH  51  53
BRANCH  51  62
ATOM     62  CB  PHE A   2     -28.911  -4.982  32.320  0.00  0.00    +0.055 C 
BRANCH  62  63
ATOM     63  CG  PHE A   2     -28.692  -5.589  30.962  0.00  0.00    -0.020 A 
ATOM     64  CD2 PHE A   2     -29.596  -6.508  30.437  0.00  0.00    -0.004 A 
ATOM     65  CE2 PHE A   2     -29.387  -7.080  29.182  0.00  0.00    -0.000 A 
ATOM     66  CZ  PHE A   2     -28.258  -6.743  28.444  0.00  0.00    -0.000 A 
ATOM     67  CE1 PHE A   2     -27.340  -5.835  28.959  0.00  0.00    -0.000 A 
ATOM     68  CD1 PHE A   2     -27.556  -5.266  30.218  0.00  0.00    -0.004 A 
ENDBRANCH  62  63
ENDBRANCH  51  62
ENDBRANCH  47  51
ENDBRANCH  46  48
BRANCH  46  69
ATOM     69  CB  ILE A   3     -27.022  -5.612  38.248  0.00  0.00    +0.027 C 
ATOM     70  CG2 ILE A   3     -27.093  -4.830  39.583  0.00  0.00    +0.002 C 
BRANCH  69  71
ATOM     71  CG1 ILE A   3     -27.861  -6.898  38.315  0.00  0.00    +0.002 C 
ATOM     72  CD1 ILE A   3     -27.340  -7.921  39.328  0.00  0.00    +0.000 C 
ENDBRANCH  69  71
ENDBRANCH  46  69
ENDBRANCH  42  46
ENDBRANCH  41  43
BRANCH  41  73
ATOM     73  CB  GLU A   4     -27.385   0.059  37.026  0.00  0.00    +0.041 C 
BRANCH  73  74
ATOM     74  CG  GLU A   4     -28.072  -0.224  35.678  0.00  0.00    +0.116 C 
BRANCH  74  75
ATOM     75  CD  GLU A   4     -28.825   0.968  35.161  0.00  0.00    +0.365 C 
ATOM     76  OE2 GLU A   4     -29.191   1.848  35.975  0.00  0.00    -0.246 OA
ATOM     77  OE1 GLU A   4     -29.032   1.025  33.929  0.00  0.00    -0.246 OA
ENDBRANCH  74  75
ENDBRANCH  73  74
ENDBRANCH  41  73
ENDBRANCH   1  41
TORSDOF 33
REMARK  Name = ../refined-set-2016/4fai/4fai_pocket.pdb
REMARK  148 active torsions:
REMARK  status: ('A' for Active; 'I' for Inactive)
REMARK    1  A    between atoms: _1  and  _3
REMARK    2  A    between atoms: _3  and  _4
REMARK    3  A    between atoms: _3  and  _6
REMARK    4  A    between atoms: _6  and  _7
REMARK    5  A    between atoms: _12  and  _14
REMARK    6  A    between atoms: _14  and  _15
REMARK    7  A    between atoms: _14  and  _17
REMARK    8  A    between atoms: _17  and  _18
REMARK    9  A    between atoms: _18  and  _19
REMARK   10  A    between atoms: _19  and  _20
REMARK   11  A    between atoms: _20  and  _21
REMARK   12  A    between atoms: _25  and  _27
REMARK   13  A    between atoms: _27  and  _28
REMARK   14  A    between atoms: _27  and  _30
REMARK   15  A    between atoms: _30  and  _31
REMARK   16  A    between atoms: _37  and  _39
REMARK   17  A    between atoms: _39  and  _40
REMARK   18  A    between atoms: _39  and  _42
REMARK   19  A    between atoms: _42  and  _43
REMARK   20  A    between atoms: _46  and  _48
REMARK   21  A    between atoms: _48  and  _49
REMARK   22  A    between atoms: _48  and  _51
REMARK   23  A    between atoms: _51  and  _52
REMARK   24  A    between atoms: _52  and  _54
REMARK   25  A    between atoms: _54  and  ZN_361
REMARK   26  A    between atoms: _55  and  _57
REMARK   27  A    between atoms: _57  and  _58
REMARK   28  A    between atoms: _57  and  _60
REMARK   29  A    between atoms: _60  and  _61
REMARK   30  A    between atoms: _63  and  _65
REMARK   31  A    between atoms: _65  and  _66
REMARK   32  A    between atoms: _65  and  _68
REMARK   33  A    between atoms: _68  and  _69
REMARK   34  A    between atoms: _69  and  _70
REMARK   35  A    between atoms: _73  and  _75
REMARK   36  A    between atoms: _75  and  _76
REMARK   37  A    between atoms: _75  and  _78
REMARK   38  A    between atoms: _78  and  _79
REMARK   39  A    between atoms: _79  and  _80
REMARK   40  A    between atoms: _80  and  _81
REMARK   41  A    between atoms: _81  and  ZN_361
REMARK   42  A    between atoms: _83  and  _85
REMARK   43  A    between atoms: _85  and  _86
REMARK   44  A    between atoms: _89  and  _91
REMARK   45  A    between atoms: _91  and  _92
REMARK   46  A    between atoms: _91  and  _94
REMARK   47  A    between atoms: _94  and  _95
REMARK   48  A    between atoms: _105  and  _107
REMARK   49  A    between atoms: _107  and  _108
REMARK   50  A    between atoms: _107  and  _110
REMARK   51  A    between atoms: _110  and  _111
REMARK   52  A    between atoms: _113  and  _115
REMARK   53  A    between atoms: _115  and  _116
REMARK   54  A    between atoms: _115  and  _118
REMARK   55  A    between atoms: _118  and  _119
REMARK   56  A    between atoms: _122  and  _124
REMARK   57  A    between atoms: _124  and  _125
REMARK   58  A    between atoms: _124  and  _127
REMARK   59  A    between atoms: _127  and  _128
REMARK   60  A    between atoms: _131  and  _133
REMARK   61  A    between atoms: _133  and  _134
REMARK   62  A    between atoms: _133  and  _136
REMARK   63  A    between atoms: _136  and  _137
REMARK   64  A    between atoms: _140  and  _142
REMARK   65  A    between atoms: _142  and  _143
REMARK   66  A    between atoms: _142  and  _145
REMARK   67  A    between atoms: _145  and  _146
REMARK   68  A    between atoms: _149  and  _151
REMARK   69  A    between atoms: _151  and  _152
REMARK   70  A    between atoms: _151  and  _154
REMARK   71  A    between atoms: _154  and  _155
REMARK   72  A    between atoms: _158  and  _160
REMARK   73  A    between atoms: _160  and  _161
REMARK   74  A    between atoms: _160  and  _163
REMARK   75  A    between atoms: _163  and  _164
REMARK   76  A    between atoms: _170  and  _172
REMARK   77  A    between atoms: _172  and  _173
REMARK   78  A    between atoms: _172  and  _175
REMARK   79  A    between atoms: _175  and  _176
REMARK   80  A    between atoms: _176  and  _177
REMARK   81  A    between atoms: _179  and  _181
REMARK   82  A    between atoms: _181  and  _182
REMARK   83  A    between atoms: _181  and  _184
REMARK   84  A    between atoms: _184  and  _185
REMARK   85  A    between atoms: _187  and  _189
REMARK   86  A    between atoms: _189  and  _190
REMARK   87  A    between atoms: _189  and  _192
REMARK   88  A    between atoms: _192  and  _193
REMARK   89  A    between atoms: _199  and  _201
REMARK   90  A    between atoms: _201  and  _202
REMARK   91  A    between atoms: _201  and  _204
REMARK   92  A    between atoms: _204  and  _205
REMARK   93  A    between atoms: _208  and  _210
REMARK   94  A    between atoms: _210  and  _211
REMARK   95  A    between atoms: _210  and  _213
REMARK   96  A    between atoms: _213  and  _214
REMARK   97  A    between atoms: _214  and  _215
REMARK   98  A    between atoms: _218  and  _220
REMARK   99  A    between atoms: _220  and  _221
REMARK  100  A    between atoms: _220  and  _223
REMARK  101  A    between atoms: _223  and  _224
REMARK  102  A    between atoms: _227  and  _229
REMARK  103  A    between atoms: _229  and  _230
REMARK  104  A    between atoms: _229  and  _232
REMARK  105  A    between atoms: _232  and  _233
REMARK  106  A    between atoms: _236  and  _238
REMARK  107  A    between atoms: _238  and  _239
REMARK  108  A    between atoms: _238  and  _241
REMARK  109  A    between atoms: _241  and  _242
REMARK  110  A    between atoms: _247  and  _249
REMARK  111  A    between atoms: _249  and  _250
REMARK  112  A    between atoms: _249  and  _252
REMARK  113  A    between atoms: _252  and  _253
REMARK  114  A    between atoms: _256  and  _258
REMARK  115  A    between atoms: _258  and  _259
REMARK  116  A    between atoms: _258  and  _261
REMARK  117  A    between atoms: _261  and  _262
REMARK  118  A    between atoms: _267  and  _269
REMARK  119  A    between atoms: _269  and  _270
REMARK  120  A    between atoms: _269  and  _272
REMARK  121  A    between atoms: _272  and  _273
REMARK  122  A    between atoms: _277  and  _278
REMARK  123  A    between atoms: _283  and  _285
REMARK  124  A    between atoms: _285  and  _286
REMARK  125  A    between atoms: _285  and  _288
REMARK  126  A    between atoms: _292  and  _293
REMARK  127  A    between atoms: _298  and  _300
REMARK  128  A    between atoms: _300  and  _301
REMARK  129  A    between atoms: _300  and  _303
REMARK  130  A    between atoms: _303  and  _304
REMARK  131  A    between atoms: _311  and  _312
REMARK  132  A    between atoms: _317  and  _319
REMARK  133  A    between atoms: _319  and  _320
REMARK  134  A    between atoms: _319  and  _322
REMARK  135  A    between atoms: _322  and  _323
REMARK  136  A    between atoms: _325  and  _327
REMARK  137  A    between atoms: _327  and  _328
REMARK  138  A    between atoms: _327  and  _330
REMARK  139  A    between atoms: _330  and  _331
REMARK  140  A    between atoms: _341  and  _343
REMARK  141  A    between atoms: _343  and  _344
REMARK  142  A    between atoms: _343  and  _346
REMARK  143  A    between atoms: _346  and  _347
REMARK  144  A    between atoms: _351  and  ZN_361
REMARK  145  A    between atoms: _352  and  _354
REMARK  146  A    between atoms: _354  and  _355
REMARK  147  A    between atoms: _354  and  _357
REMARK  148  A    between atoms: _357  and  _358
REMARK                            x       y       z     vdW  Elec       q    Type
REMARK                         _______ _______ _______ _____ _____    ______ ____
ROOT
ATOM      1  CB  HIS A   1     -20.318  -7.095  39.425  0.00  0.00    +0.072 C 
ENDROOT
BRANCH   1   2
ATOM      2  CG  HIS A   1     -21.233  -6.101  40.085  0.00  0.00    +0.082 A 
ATOM      3  CD2 HIS A   1     -21.125  -5.419  41.253  0.00  0.00    +0.115 A 
ATOM      4  NE2 HIS A   1     -22.233  -4.598  41.350  0.00  0.00    -0.221 NA
ATOM      5  CE1 HIS A   1     -22.978  -4.765  40.279  0.00  0.00    +0.199 A 
ATOM      6  ND1 HIS A   1     -22.430  -5.695  39.519  0.00  0.00    -0.227 NA
ENDBRANCH   1   2
BRANCH   1   7
ATOM      7  CA  HIS A   1     -19.147  -7.535  40.301  0.00  0.00    +0.139 C 
BRANCH   7   8
ATOM      8  N   HIS A   1     -18.121  -8.202  39.516  0.00  0.00    -0.239 NA
ATOM      9  H   HIS A   1     -18.396  -8.916  38.812  0.00  0.00    +0.142 HD
ENDBRANCH   7   8
BRANCH   7  10
ATOM     10  C   HIS A   1     -19.604  -8.526  41.397  0.00  0.00    +0.224 C 
ATOM     11  O   HIS A   1     -20.417  -9.446  41.159  0.00  0.00    -0.287 OA
ENDBRANCH   7  10
ENDBRANCH   1   7
TORSDOF 4
REMARK  Name = ../refined-set-2016/4fai/4fai_pocket.pdb
REMARK  148 active torsions:
REMARK  status: ('A' for Active; 'I' for Inactive)
REMARK    1  A    between atoms: _1  and  _3
REMARK    2  A    between atoms: _3  and  _4
REMARK    3  A    between atoms: _3  and  _6
REMARK    4  A    between atoms: _6  and  _7
REMARK    5  A    between atoms: _12  and  _14
REMARK    6  A    between atoms: _14  and  _15
REMARK    7  A    between atoms: _14  and  _17
REMARK    8  A    between atoms: _17  and  _18
REMARK    9  A    between atoms: _18  and  _19
REMARK   10  A    between atoms: _19  and  _20
REMARK   11  A    between atoms: _20  and  _21
REMARK   12  A    between atoms: _25  and  _27
REMARK   13  A    between atoms: _27  and  _28
REMARK   14  A    between atoms: _27  and  _30
REMARK   15  A    between atoms: _30  and  _31
REMARK   16  A    between atoms: _37  and  _39
REMARK   17  A    between atoms: _39  and  _40
REMARK   18  A    between atoms: _39  and  _42
REMARK   19  A    between atoms: _42  and  _43
REMARK   20  A    between atoms: _46  and  _48
REMARK   21  A    between atoms: _48  and  _49
REMARK   22  A    between atoms: _48  and  _51
REMARK   23  A    between atoms: _51  and  _52
REMARK   24  A    between atoms: _52  and  _54
REMARK   25  A    between atoms: _54  and  ZN_361
REMARK   26  A    between atoms: _55  and  _57
REMARK   27  A    between atoms: _57  and  _58
REMARK   28  A    between atoms: _57  and  _60
REMARK   29  A    between atoms: _60  and  _61
REMARK   30  A    between atoms: _63  and  _65
REMARK   31  A    between atoms: _65  and  _66
REMARK   32  A    between atoms: _65  and  _68
REMARK   33  A    between atoms: _68  and  _69
REMARK   34  A    between atoms: _69  and  _70
REMARK   35  A    between atoms: _73  and  _75
REMARK   36  A    between atoms: _75  and  _76
REMARK   37  A    between atoms: _75  and  _78
REMARK   38  A    between atoms: _78  and  _79
REMARK   39  A    between atoms: _79  and  _80
REMARK   40  A    between atoms: _80  and  _81
REMARK   41  A    between atoms: _81  and  ZN_361
REMARK   42  A    between atoms: _83  and  _85
REMARK   43  A    between atoms: _85  and  _86
REMARK   44  A    between atoms: _89  and  _91
REMARK   45  A    between atoms: _91  and  _92
REMARK   46  A    between atoms: _91  and  _94
REMARK   47  A    between atoms: _94  and  _95
REMARK   48  A    between atoms: _105  and  _107
REMARK   49  A    between atoms: _107  and  _108
REMARK   50  A    between atoms: _107  and  _110
REMARK   51  A    between atoms: _110  and  _111
REMARK   52  A    between atoms: _113  and  _115
REMARK   53  A    between atoms: _115  and  _116
REMARK   54  A    between atoms: _115  and  _118
REMARK   55  A    between atoms: _118  and  _119
REMARK   56  A    between atoms: _122  and  _124
REMARK   57  A    between atoms: _124  and  _125
REMARK   58  A    between atoms: _124  and  _127
REMARK   59  A    between atoms: _127  and  _128
REMARK   60  A    between atoms: _131  and  _133
REMARK   61  A    between atoms: _133  and  _134
REMARK   62  A    between atoms: _133  and  _136
REMARK   63  A    between atoms: _136  and  _137
REMARK   64  A    between atoms: _140  and  _142
REMARK   65  A    between atoms: _142  and  _143
REMARK   66  A    between atoms: _142  and  _145
REMARK   67  A    between atoms: _145  and  _146
REMARK   68  A    between atoms: _149  and  _151
REMARK   69  A    between atoms: _151  and  _152
REMARK   70  A    between atoms: _151  and  _154
REMARK   71  A    between atoms: _154  and  _155
REMARK   72  A    between atoms: _158  and  _160
REMARK   73  A    between atoms: _160  and  _161
REMARK   74  A    between atoms: _160  and  _163
REMARK   75  A    between atoms: _163  and  _164
REMARK   76  A    between atoms: _170  and  _172
REMARK   77  A    between atoms: _172  and  _173
REMARK   78  A    between atoms: _172  and  _175
REMARK   79  A    between atoms: _175  and  _176
REMARK   80  A    between atoms: _176  and  _177
REMARK   81  A    between atoms: _179  and  _181
REMARK   82  A    between atoms: _181  and  _182
REMARK   83  A    between atoms: _181  and  _184
REMARK   84  A    between atoms: _184  and  _185
REMARK   85  A    between atoms: _187  and  _189
REMARK   86  A    between atoms: _189  and  _190
REMARK   87  A    between atoms: _189  and  _192
REMARK   88  A    between atoms: _192  and  _193
REMARK   89  A    between atoms: _199  and  _201
REMARK   90  A    between atoms: _201  and  _202
REMARK   91  A    between atoms: _201  and  _204
REMARK   92  A    between atoms: _204  and  _205
REMARK   93  A    between atoms: _208  and  _210
REMARK   94  A    between atoms: _210  and  _211
REMARK   95  A    between atoms: _210  and  _213
REMARK   96  A    between atoms: _213  and  _214
REMARK   97  A    between atoms: _214  and  _215
REMARK   98  A    between atoms: _218  and  _220
REMARK   99  A    between atoms: _220  and  _221
REMARK  100  A    between atoms: _220  and  _223
REMARK  101  A    between atoms: _223  and  _224
REMARK  102  A    between atoms: _227  and  _229
REMARK  103  A    between atoms: _229  and  _230
REMARK  104  A    between atoms: _229  and  _232
REMARK  105  A    between atoms: _232  and  _233
REMARK  106  A    between atoms: _236  and  _238
REMARK  107  A    between atoms: _238  and  _239
REMARK  108  A    between atoms: _238  and  _241
REMARK  109  A    between atoms: _241  and  _242
REMARK  110  A    between atoms: _247  and  _249
REMARK  111  A    between atoms: _249  and  _250
REMARK  112  A    between atoms: _249  and  _252
REMARK  113  A    between atoms: _252  and  _253
REMARK  114  A    between atoms: _256  and  _258
REMARK  115  A    between atoms: _258  and  _259
REMARK  116  A    between atoms: _258  and  _261
REMARK  117  A    between atoms: _261  and  _262
REMARK  118  A    between atoms: _267  and  _269
REMARK  119  A    between atoms: _269  and  _270
REMARK  120  A    between atoms: _269  and  _272
REMARK  121  A    between atoms: _272  and  _273
REMARK  122  A    between atoms: _277  and  _278
REMARK  123  A    between atoms: _283  and  _285
REMARK  124  A    between atoms: _285  and  _286
REMARK  125  A    between atoms: _285  and  _288
REMARK  126  A    between atoms: _292  and  _293
REMARK  127  A    between atoms: _298  and  _300
REMARK  128  A    between atoms: _300  and  _301
REMARK  129  A    between atoms: _300  and  _303
REMARK  130  A    between atoms: _303  and  _304
REMARK  131  A    between atoms: _311  and  _312
REMARK  132  A    between atoms: _317  and  _319
REMARK  133  A    between atoms: _319  and  _320
REMARK  134  A    between atoms: _319  and  _322
REMARK  135  A    between atoms: _322  and  _323
REMARK  136  A    between atoms: _325  and  _327
REMARK  137  A    between atoms: _327  and  _328
REMARK  138  A    between atoms: _327  and  _330
REMARK  139  A    between atoms: _330  and  _331
REMARK  140  A    between atoms: _341  and  _343
REMARK  141  A    between atoms: _343  and  _344
REMARK  142  A    between atoms: _343  and  _346
REMARK  143  A    between atoms: _346  and  _347
REMARK  144  A    between atoms: _351  and  ZN_361
REMARK  145  A    between atoms: _352  and  _354
REMARK  146  A    between atoms: _354  and  _355
REMARK  147  A    between atoms: _354  and  _357
REMARK  148  A    between atoms: _357  and  _358
REMARK                            x       y       z     vdW  Elec       q    Type
REMARK                         _______ _______ _______ _____ _____    ______ ____
ROOT
ATOM      1  C   VAL A   3     -29.336 -13.549  43.662  0.00  0.00    +0.244 C 
ATOM      2  N   PRO A   4     -30.503 -13.370  44.285  0.00  0.00    -0.272 N 
ATOM      3  CD  PRO A   4     -31.162 -14.502  44.962  0.00  0.00    +0.094 C 
ATOM      4  CG  PRO A   4     -32.186 -13.841  45.842  0.00  0.00    +0.024 C 
ATOM      5  CB  PRO A   4     -32.553 -12.606  45.067  0.00  0.00    +0.031 C 
ATOM      6  CA  PRO A   4     -31.199 -12.117  44.516  0.00  0.00    +0.152 C 
ATOM      7  O   VAL A   3     -28.862 -14.668  43.494  0.00  0.00    -0.273 OA
ENDROOT
BRANCH   6   8
ATOM      8  C   PRO A   4     -30.524 -11.168  45.542  0.00  0.00    +0.241 C 
ATOM      9  O   PRO A   4     -29.725 -11.601  46.348  0.00  0.00    -0.273 OA
ATOM     10  N   PHE A   5     -30.852  -9.880  45.482  0.00  0.00    -0.297 N 
ATOM     11  H   PHE A   5     -31.432  -9.540  44.688  0.00  0.00    +0.150 HD
BRANCH  10  12
ATOM     12  CA  PHE A   5     -30.414  -8.927  46.511  0.00  0.00    +0.153 C 
BRANCH  12  13
ATOM     13  C   PHE A   5     -31.008  -9.357  47.851  0.00  0.00    +0.244 C 
ATOM     14  N   PRO A   6     -30.352  -9.006  48.971  0.00  0.00    -0.272 N 
ATOM     15  CA  PRO A   6     -30.931  -9.232  50.298  0.00  0.00    +0.152 C 
ATOM     16  CB  PRO A   6     -30.033  -8.380  51.190  0.00  0.00    +0.031 C 
ATOM     17  CG  PRO A   6     -28.714  -8.473  50.525  0.00  0.00    +0.024 C 
ATOM     18  CD  PRO A   6     -29.093  -8.257  49.085  0.00  0.00    +0.094 C 
ATOM     19  O   PHE A   5     -32.069  -9.985  47.884  0.00  0.00    -0.273 OA
BRANCH  15  20
ATOM     20  C   PRO A   6     -32.378  -8.730  50.376  0.00  0.00    +0.241 C 
ATOM     21  N   SER A   7     -33.219  -9.440  51.128  0.00  0.00    -0.296 N 
ATOM     22  H   SER A   7     -32.861 -10.247  51.678  0.00  0.00    +0.150 HD
ATOM     23  O   PRO A   6     -32.721  -7.726  49.748  0.00  0.00    -0.273 OA
BRANCH  21  24
ATOM     24  CA  SER A   7     -34.644  -9.097  51.189  0.00  0.00    +0.166 C 
BRANCH  24  25
ATOM     25  CB  SER A   7     -34.889  -7.740  51.833  0.00  0.00    +0.229 C 
ATOM     26  OG  SER A   7     -35.886  -7.091  51.541  0.00  0.00    -0.286 OA
ENDBRANCH  24  25
BRANCH  24  27
ATOM     27  C   SER A   7     -35.444 -10.194  51.908  0.00  0.00    +0.165 C 
BRANCH  27  28
ATOM     28  O   SER A   7     -35.041 -10.337  53.262  0.00  0.00    -0.380 OA
ATOM     29  H   SER A   7     -34.081 -10.578  53.296  0.00  0.00    +0.211 HD
ENDBRANCH  27  28
ENDBRANCH  24  27
ENDBRANCH  21  24
ENDBRANCH  15  20
ENDBRANCH  12  13
BRANCH  12  30
ATOM     30  CB  PHE A   5     -30.911  -7.497  46.236  0.00  0.00    +0.055 C 
BRANCH  30  31
ATOM     31  CG  PHE A   5     -30.312  -6.812  45.032  0.00  0.00    -0.020 A 
ATOM     32  CD2 PHE A   5     -30.698  -5.513  44.737  0.00  0.00    -0.004 A 
ATOM     33  CE2 PHE A   5     -30.195  -4.828  43.670  0.00  0.00    -0.000 A 
ATOM     34  CZ  PHE A   5     -29.246  -5.441  42.862  0.00  0.00    -0.000 A 
ATOM     35  CE1 PHE A   5     -28.857  -6.739  43.131  0.00  0.00    -0.000 A 
ATOM     36  CD1 PHE A   5     -29.361  -7.413  44.219  0.00  0.00    -0.004 A 
ENDBRANCH  30  31
ENDBRANCH  12  30
ENDBRANCH  10  12
ENDBRANCH   6   8
BRANCH   1  37
ATOM     37  CA  VAL A   3     -28.583 -12.284  43.216  0.00  0.00    +0.149 C 
BRANCH  37  40
ATOM     38  C   PRO A   2     -26.815 -11.193  44.516  0.00  0.00    +0.241 C 
ATOM     39  O   PRO A   2     -27.282 -10.059  44.370  0.00  0.00    -0.273 OA
ATOM     40  N   VAL A   3     -27.310 -12.276  43.930  0.00  0.00    -0.297 N 
ATOM     41  H   VAL A   3     -26.765 -13.160  43.982  0.00  0.00    +0.150 HD
BRANCH  38  47
ATOM     42  C   ILE A   1     -24.024  -9.866  44.301  0.00  0.00    +0.241 C 
ATOM     43  N   PRO A   2     -24.735 -10.196  45.380  0.00  0.00    -0.272 N 
ATOM     44  CD  PRO A   2     -24.896  -9.430  46.632  0.00  0.00    +0.094 C 
ATOM     45  CG  PRO A   2     -25.307 -10.499  47.592  0.00  0.00    +0.024 C 
ATOM     46  CB  PRO A   2     -25.929 -11.620  46.841  0.00  0.00    +0.031 C 
ATOM     47  CA  PRO A   2     -25.563 -11.406  45.368  0.00  0.00    +0.152 C 
ATOM     48  O   ILE A   1     -24.039 -10.546  43.269  0.00  0.00    -0.273 OA
BRANCH  42  49
ATOM     49  CA  ILE A   1     -23.124  -8.613  44.394  0.00  0.00    +0.145 C 
BRANCH  49  50
ATOM     50  N   ILE A   1     -21.793  -8.990  43.917  0.00  0.00    -0.238 NA
ATOM     51  H   ILE A   1     -21.737  -9.590  43.069  0.00  0.00    +0.142 HD
ENDBRANCH  49  50
BRANCH  49  52
ATOM     52  CB  ILE A   1     -23.686  -7.414  43.581  0.00  0.00    +0.025 C 
ATOM     53  CG2 ILE A   1     -23.958  -7.744  42.034  0.00  0.00    +0.002 C 
BRANCH  52  54
ATOM     54  CG1 ILE A   1     -24.989  -6.882  44.201  0.00  0.00    +0.002 C 
ATOM     55  CD1 ILE A   1     -25.526  -5.611  43.505  0.00  0.00    +0.000 C 
ENDBRANCH  52  54
ENDBRANCH  49  52
ENDBRANCH  42  49
ENDBRANCH  38  47
ENDBRANCH  37  40
BRANCH  37  56
ATOM     56  CB  VAL A   3     -28.379 -12.302  41.661  0.00  0.00    +0.027 C 
ATOM     57  CG2 VAL A   3     -27.538 -11.128  41.222  0.00  0.00    +0.002 C 
ATOM     58  CG1 VAL A   3     -29.749 -12.283  40.939  0.00  0.00    +0.002 C 
ENDBRANCH  37  56
ENDBRANCH   1  37
TORSDOF 18
REMARK  Name = ../refined-set-2016/4fai/4fai_pocket.pdb
REMARK  148 active torsions:
REMARK  status: ('A' for Active; 'I' for Inactive)
REMARK    1  A    between atoms: _1  and  _3
REMARK    2  A    between atoms: _3  and  _4
REMARK    3  A    between atoms: _3  and  _6
REMARK    4  A    between atoms: _6  and  _7
REMARK    5  A    between atoms: _12  and  _14
REMARK    6  A    between atoms: _14  and  _15
REMARK    7  A    between atoms: _14  and  _17
REMARK    8  A    between atoms: _17  and  _18
REMARK    9  A    between atoms: _18  and  _19
REMARK   10  A    between atoms: _19  and  _20
REMARK   11  A    between atoms: _20  and  _21
REMARK   12  A    between atoms: _25  and  _27
REMARK   13  A    between atoms: _27  and  _28
REMARK   14  A    between atoms: _27  and  _30
REMARK   15  A    between atoms: _30  and  _31
REMARK   16  A    between atoms: _37  and  _39
REMARK   17  A    between atoms: _39  and  _40
REMARK   18  A    between atoms: _39  and  _42
REMARK   19  A    between atoms: _42  and  _43
REMARK   20  A    between atoms: _46  and  _48
REMARK   21  A    between atoms: _48  and  _49
REMARK   22  A    between atoms: _48  and  _51
REMARK   23  A    between atoms: _51  and  _52
REMARK   24  A    between atoms: _52  and  _54
REMARK   25  A    between atoms: _54  and  ZN_361
REMARK   26  A    between atoms: _55  and  _57
REMARK   27  A    between atoms: _57  and  _58
REMARK   28  A    between atoms: _57  and  _60
REMARK   29  A    between atoms: _60  and  _61
REMARK   30  A    between atoms: _63  and  _65
REMARK   31  A    between atoms: _65  and  _66
REMARK   32  A    between atoms: _65  and  _68
REMARK   33  A    between atoms: _68  and  _69
REMARK   34  A    between atoms: _69  and  _70
REMARK   35  A    between atoms: _73  and  _75
REMARK   36  A    between atoms: _75  and  _76
REMARK   37  A    between atoms: _75  and  _78
REMARK   38  A    between atoms: _78  and  _79
REMARK   39  A    between atoms: _79  and  _80
REMARK   40  A    between atoms: _80  and  _81
REMARK   41  A    between atoms: _81  and  ZN_361
REMARK   42  A    between atoms: _83  and  _85
REMARK   43  A    between atoms: _85  and  _86
REMARK   44  A    between atoms: _89  and  _91
REMARK   45  A    between atoms: _91  and  _92
REMARK   46  A    between atoms: _91  and  _94
REMARK   47  A    between atoms: _94  and  _95
REMARK   48  A    between atoms: _105  and  _107
REMARK   49  A    between atoms: _107  and  _108
REMARK   50  A    between atoms: _107  and  _110
REMARK   51  A    between atoms: _110  and  _111
REMARK   52  A    between atoms: _113  and  _115
REMARK   53  A    between atoms: _115  and  _116
REMARK   54  A    between atoms: _115  and  _118
REMARK   55  A    between atoms: _118  and  _119
REMARK   56  A    between atoms: _122  and  _124
REMARK   57  A    between atoms: _124  and  _125
REMARK   58  A    between atoms: _124  and  _127
REMARK   59  A    between atoms: _127  and  _128
REMARK   60  A    between atoms: _131  and  _133
REMARK   61  A    between atoms: _133  and  _134
REMARK   62  A    between atoms: _133  and  _136
REMARK   63  A    between atoms: _136  and  _137
REMARK   64  A    between atoms: _140  and  _142
REMARK   65  A    between atoms: _142  and  _143
REMARK   66  A    between atoms: _142  and  _145
REMARK   67  A    between atoms: _145  and  _146
REMARK   68  A    between atoms: _149  and  _151
REMARK   69  A    between atoms: _151  and  _152
REMARK   70  A    between atoms: _151  and  _154
REMARK   71  A    between atoms: _154  and  _155
REMARK   72  A    between atoms: _158  and  _160
REMARK   73  A    between atoms: _160  and  _161
REMARK   74  A    between atoms: _160  and  _163
REMARK   75  A    between atoms: _163  and  _164
REMARK   76  A    between atoms: _170  and  _172
REMARK   77  A    between atoms: _172  and  _173
REMARK   78  A    between atoms: _172  and  _175
REMARK   79  A    between atoms: _175  and  _176
REMARK   80  A    between atoms: _176  and  _177
REMARK   81  A    between atoms: _179  and  _181
REMARK   82  A    between atoms: _181  and  _182
REMARK   83  A    between atoms: _181  and  _184
REMARK   84  A    between atoms: _184  and  _185
REMARK   85  A    between atoms: _187  and  _189
REMARK   86  A    between atoms: _189  and  _190
REMARK   87  A    between atoms: _189  and  _192
REMARK   88  A    between atoms: _192  and  _193
REMARK   89  A    between atoms: _199  and  _201
REMARK   90  A    between atoms: _201  and  _202
REMARK   91  A    between atoms: _201  and  _204
REMARK   92  A    between atoms: _204  and  _205
REMARK   93  A    between atoms: _208  and  _210
REMARK   94  A    between atoms: _210  and  _211
REMARK   95  A    between atoms: _210  and  _213
REMARK   96  A    between atoms: _213  and  _214
REMARK   97  A    between atoms: _214  and  _215
REMARK   98  A    between atoms: _218  and  _220
REMARK   99  A    between atoms: _220  and  _221
REMARK  100  A    between atoms: _220  and  _223
REMARK  101  A    between atoms: _223  and  _224
REMARK  102  A    between atoms: _227  and  _229
REMARK  103  A    between atoms: _229  and  _230
REMARK  104  A    between atoms: _229  and  _232
REMARK  105  A    between atoms: _232  and  _233
REMARK  106  A    between atoms: _236  and  _238
REMARK  107  A    between atoms: _238  and  _239
REMARK  108  A    between atoms: _238  and  _241
REMARK  109  A    between atoms: _241  and  _242
REMARK  110  A    between atoms: _247  and  _249
REMARK  111  A    between atoms: _249  and  _250
REMARK  112  A    between atoms: _249  and  _252
REMARK  113  A    between atoms: _252  and  _253
REMARK  114  A    between atoms: _256  and  _258
REMARK  115  A    between atoms: _258  and  _259
REMARK  116  A    between atoms: _258  and  _261
REMARK  117  A    between atoms: _261  and  _262
REMARK  118  A    between atoms: _267  and  _269
REMARK  119  A    between atoms: _269  and  _270
REMARK  120  A    between atoms: _269  and  _272
REMARK  121  A    between atoms: _272  and  _273
REMARK  122  A    between atoms: _277  and  _278
REMARK  123  A    between atoms: _283  and  _285
REMARK  124  A    between atoms: _285  and  _286
REMARK  125  A    between atoms: _285  and  _288
REMARK  126  A    between atoms: _292  and  _293
REMARK  127  A    between atoms: _298  and  _300
REMARK  128  A    between atoms: _300  and  _301
REMARK  129  A    between atoms: _300  and  _303
REMARK  130  A    between atoms: _303  and  _304
REMARK  131  A    between atoms: _311  and  _312
REMARK  132  A    between atoms: _317  and  _319
REMARK  133  A    between atoms: _319  and  _320
REMARK  134  A    between atoms: _319  and  _322
REMARK  135  A    between atoms: _322  and  _323
REMARK  136  A    between atoms: _325  and  _327
REMARK  137  A    between atoms: _327  and  _328
REMARK  138  A    between atoms: _327  and  _330
REMARK  139  A    between atoms: _330  and  _331
REMARK  140  A    between atoms: _341  and  _343
REMARK  141  A    between atoms: _343  and  _344
REMARK  142  A    between atoms: _343  and  _346
REMARK  143  A    between atoms: _346  and  _347
REMARK  144  A    between atoms: _351  and  ZN_361
REMARK  145  A    between atoms: _352  and  _354
REMARK  146  A    between atoms: _354  and  _355
REMARK  147  A    between atoms: _354  and  _357
REMARK  148  A    between atoms: _357  and  _358
REMARK                            x       y       z     vdW  Elec       q    Type
REMARK                         _______ _______ _______ _____ _____    ______ ____
ROOT
ATOM      1  CA  ASP A   1     -30.899  -3.133  56.303  0.00  0.00    +0.144 C 
ENDROOT
BRANCH   1   2
ATOM      2  N   ASP A   1     -32.329  -2.961  56.620  0.00  0.00    -0.239 NA
ATOM      3  H   ASP A   1     -32.893  -2.264  56.093  0.00  0.00    +0.142 HD
ENDBRANCH   1   2
BRANCH   1   4
ATOM      4  C   ASP A   1     -30.053  -2.442  57.390  0.00  0.00    +0.225 C 
ATOM      5  O   ASP A   1     -29.448  -1.388  57.149  0.00  0.00    -0.287 OA
ENDBRANCH   1   4
BRANCH   1   6
ATOM      6  CB  ASP A   1     -30.553  -2.590  54.911  0.00  0.00    +0.139 C 
BRANCH   6   7
ATOM      7  CG  ASP A   1     -29.149  -3.012  54.446  0.00  0.00    +0.367 C 
ATOM      8  OD2 ASP A   1     -28.459  -3.763  55.157  0.00  0.00    -0.246 OA
ATOM      9  OD1 ASP A   1     -28.716  -2.558  53.373  0.00  0.00    -0.246 OA
ENDBRANCH   6   7
ENDBRANCH   1   6
TORSDOF 4
REMARK  Name = ../refined-set-2016/4fai/4fai_pocket.pdb
REMARK  148 active torsions:
REMARK  status: ('A' for Active; 'I' for Inactive)
REMARK    1  A    between atoms: _1  and  _3
REMARK    2  A    between atoms: _3  and  _4
REMARK    3  A    between atoms: _3  and  _6
REMARK    4  A    between atoms: _6  and  _7
REMARK    5  A    between atoms: _12  and  _14
REMARK    6  A    between atoms: _14  and  _15
REMARK    7  A    between atoms: _14  and  _17
REMARK    8  A    between atoms: _17  and  _18
REMARK    9  A    between atoms: _18  and  _19
REMARK   10  A    between atoms: _19  and  _20
REMARK   11  A    between atoms: _20  and  _21
REMARK   12  A    between atoms: _25  and  _27
REMARK   13  A    between atoms: _27  and  _28
REMARK   14  A    between atoms: _27  and  _30
REMARK   15  A    between atoms: _30  and  _31
REMARK   16  A    between atoms: _37  and  _39
REMARK   17  A    between atoms: _39  and  _40
REMARK   18  A    between atoms: _39  and  _42
REMARK   19  A    between atoms: _42  and  _43
REMARK   20  A    between atoms: _46  and  _48
REMARK   21  A    between atoms: _48  and  _49
REMARK   22  A    between atoms: _48  and  _51
REMARK   23  A    between atoms: _51  and  _52
REMARK   24  A    between atoms: _52  and  _54
REMARK   25  A    between atoms: _54  and  ZN_361
REMARK   26  A    between atoms: _55  and  _57
REMARK   27  A    between atoms: _57  and  _58
REMARK   28  A    between atoms: _57  and  _60
REMARK   29  A    between atoms: _60  and  _61
REMARK   30  A    between atoms: _63  and  _65
REMARK   31  A    between atoms: _65  and  _66
REMARK   32  A    between atoms: _65  and  _68
REMARK   33  A    between atoms: _68  and  _69
REMARK   34  A    between atoms: _69  and  _70
REMARK   35  A    between atoms: _73  and  _75
REMARK   36  A    between atoms: _75  and  _76
REMARK   37  A    between atoms: _75  and  _78
REMARK   38  A    between atoms: _78  and  _79
REMARK   39  A    between atoms: _79  and  _80
REMARK   40  A    between atoms: _80  and  _81
REMARK   41  A    between atoms: _81  and  ZN_361
REMARK   42  A    between atoms: _83  and  _85
REMARK   43  A    between atoms: _85  and  _86
REMARK   44  A    between atoms: _89  and  _91
REMARK   45  A    between atoms: _91  and  _92
REMARK   46  A    between atoms: _91  and  _94
REMARK   47  A    between atoms: _94  and  _95
REMARK   48  A    between atoms: _105  and  _107
REMARK   49  A    between atoms: _107  and  _108
REMARK   50  A    between atoms: _107  and  _110
REMARK   51  A    between atoms: _110  and  _111
REMARK   52  A    between atoms: _113  and  _115
REMARK   53  A    between atoms: _115  and  _116
REMARK   54  A    between atoms: _115  and  _118
REMARK   55  A    between atoms: _118  and  _119
REMARK   56  A    between atoms: _122  and  _124
REMARK   57  A    between atoms: _124  and  _125
REMARK   58  A    between atoms: _124  and  _127
REMARK   59  A    between atoms: _127  and  _128
REMARK   60  A    between atoms: _131  and  _133
REMARK   61  A    between atoms: _133  and  _134
REMARK   62  A    between atoms: _133  and  _136
REMARK   63  A    between atoms: _136  and  _137
REMARK   64  A    between atoms: _140  and  _142
REMARK   65  A    between atoms: _142  and  _143
REMARK   66  A    between atoms: _142  and  _145
REMARK   67  A    between atoms: _145  and  _146
REMARK   68  A    between atoms: _149  and  _151
REMARK   69  A    between atoms: _151  and  _152
REMARK   70  A    between atoms: _151  and  _154
REMARK   71  A    between atoms: _154  and  _155
REMARK   72  A    between atoms: _158  and  _160
REMARK   73  A    between atoms: _160  and  _161
REMARK   74  A    between atoms: _160  and  _163
REMARK   75  A    between atoms: _163  and  _164
REMARK   76  A    between atoms: _170  and  _172
REMARK   77  A    between atoms: _172  and  _173
REMARK   78  A    between atoms: _172  and  _175
REMARK   79  A    between atoms: _175  and  _176
REMARK   80  A    between atoms: _176  and  _177
REMARK   81  A    between atoms: _179  and  _181
REMARK   82  A    between atoms: _181  and  _182
REMARK   83  A    between atoms: _181  and  _184
REMARK   84  A    between atoms: _184  and  _185
REMARK   85  A    between atoms: _187  and  _189
REMARK   86  A    between atoms: _189  and  _190
REMARK   87  A    between atoms: _189  and  _192
REMARK   88  A    between atoms: _192  and  _193
REMARK   89  A    between atoms: _199  and  _201
REMARK   90  A    between atoms: _201  and  _202
REMARK   91  A    between atoms: _201  and  _204
REMARK   92  A    between atoms: _204  and  _205
REMARK   93  A    between atoms: _208  and  _210
REMARK   94  A    between atoms: _210  and  _211
REMARK   95  A    between atoms: _210  and  _213
REMARK   96  A    between atoms: _213  and  _214
REMARK   97  A    between atoms: _214  and  _215
REMARK   98  A    between atoms: _218  and  _220
REMARK   99  A    between atoms: _220  and  _221
REMARK  100  A    between atoms: _220  and  _223
REMARK  101  A    between atoms: _223  and  _224
REMARK  102  A    between atoms: _227  and  _229
REMARK  103  A    between atoms: _229  and  _230
REMARK  104  A    between atoms: _229  and  _232
REMARK  105  A    between atoms: _232  and  _233
REMARK  106  A    between atoms: _236  and  _238
REMARK  107  A    between atoms: _238  and  _239
REMARK  108  A    between atoms: _238  and  _241
REMARK  109  A    between atoms: _241  and  _242
REMARK  110  A    between atoms: _247  and  _249
REMARK  111  A    between atoms: _249  and  _250
REMARK  112  A    between atoms: _249  and  _252
REMARK  113  A    between atoms: _252  and  _253
REMARK  114  A    between atoms: _256  and  _258
REMARK  115  A    between atoms: _258  and  _259
REMARK  116  A    between atoms: _258  and  _261
REMARK  117  A    between atoms: _261  and  _262
REMARK  118  A    between atoms: _267  and  _269
REMARK  119  A    between atoms: _269  and  _270
REMARK  120  A    between atoms: _269  and  _272
REMARK  121  A    between atoms: _272  and  _273
REMARK  122  A    between atoms: _277  and  _278
REMARK  123  A    between atoms: _283  and  _285
REMARK  124  A    between atoms: _285  and  _286
REMARK  125  A    between atoms: _285  and  _288
REMARK  126  A    between atoms: _292  and  _293
REMARK  127  A    between atoms: _298  and  _300
REMARK  128  A    between atoms: _300  and  _301
REMARK  129  A    between atoms: _300  and  _303
REMARK  130  A    between atoms: _303  and  _304
REMARK  131  A    between atoms: _311  and  _312
REMARK  132  A    between atoms: _317  and  _319
REMARK  133  A    between atoms: _319  and  _320
REMARK  134  A    between atoms: _319  and  _322
REMARK  135  A    between atoms: _322  and  _323
REMARK  136  A    between atoms: _325  and  _327
REMARK  137  A    between atoms: _327  and  _328
REMARK  138  A    between atoms: _327  and  _330
REMARK  139  A    between atoms: _330  and  _331
REMARK  140  A    between atoms: _341  and  _343
REMARK  141  A    between atoms: _343  and  _344
REMARK  142  A    between atoms: _343  and  _346
REMARK  143  A    between atoms: _346  and  _347
REMARK  144  A    between atoms: _351  and  ZN_361
REMARK  145  A    between atoms: _352  and  _354
REMARK  146  A    between atoms: _354  and  _355
REMARK  147  A    between atoms: _354  and  _357
REMARK  148  A    between atoms: _357  and  _358
REMARK                            x       y       z     vdW  Elec       q    Type
REMARK                         _______ _______ _______ _____ _____    ______ ____
ROOT
ATOM      1  O   HOH     1     -20.755  -1.003  47.300  0.00  0.00    +0.000 OA
ENDROOT
TORSDOF 0
REMARK  Name = ../refined-set-2016/4fai/4fai_pocket.pdb
REMARK  148 active torsions:
REMARK  status: ('A' for Active; 'I' for Inactive)
REMARK    1  A    between atoms: _1  and  _3
REMARK    2  A    between atoms: _3  and  _4
REMARK    3  A    between atoms: _3  and  _6
REMARK    4  A    between atoms: _6  and  _7
REMARK    5  A    between atoms: _12  and  _14
REMARK    6  A    between atoms: _14  and  _15
REMARK    7  A    between atoms: _14  and  _17
REMARK    8  A    between atoms: _17  and  _18
REMARK    9  A    between atoms: _18  and  _19
REMARK   10  A    between atoms: _19  and  _20
REMARK   11  A    between atoms: _20  and  _21
REMARK   12  A    between atoms: _25  and  _27
REMARK   13  A    between atoms: _27  and  _28
REMARK   14  A    between atoms: _27  and  _30
REMARK   15  A    between atoms: _30  and  _31
REMARK   16  A    between atoms: _37  and  _39
REMARK   17  A    between atoms: _39  and  _40
REMARK   18  A    between atoms: _39  and  _42
REMARK   19  A    between atoms: _42  and  _43
REMARK   20  A    between atoms: _46  and  _48
REMARK   21  A    between atoms: _48  and  _49
REMARK   22  A    between atoms: _48  and  _51
REMARK   23  A    between atoms: _51  and  _52
REMARK   24  A    between atoms: _52  and  _54
REMARK   25  A    between atoms: _54  and  ZN_361
REMARK   26  A    between atoms: _55  and  _57
REMARK   27  A    between atoms: _57  and  _58
REMARK   28  A    between atoms: _57  and  _60
REMARK   29  A    between atoms: _60  and  _61
REMARK   30  A    between atoms: _63  and  _65
REMARK   31  A    between atoms: _65  and  _66
REMARK   32  A    between atoms: _65  and  _68
REMARK   33  A    between atoms: _68  and  _69
REMARK   34  A    between atoms: _69  and  _70
REMARK   35  A    between atoms: _73  and  _75
REMARK   36  A    between atoms: _75  and  _76
REMARK   37  A    between atoms: _75  and  _78
REMARK   38  A    between atoms: _78  and  _79
REMARK   39  A    between atoms: _79  and  _80
REMARK   40  A    between atoms: _80  and  _81
REMARK   41  A    between atoms: _81  and  ZN_361
REMARK   42  A    between atoms: _83  and  _85
REMARK   43  A    between atoms: _85  and  _86
REMARK   44  A    between atoms: _89  and  _91
REMARK   45  A    between atoms: _91  and  _92
REMARK   46  A    between atoms: _91  and  _94
REMARK   47  A    between atoms: _94  and  _95
REMARK   48  A    between atoms: _105  and  _107
REMARK   49  A    between atoms: _107  and  _108
REMARK   50  A    between atoms: _107  and  _110
REMARK   51  A    between atoms: _110  and  _111
REMARK   52  A    between atoms: _113  and  _115
REMARK   53  A    between atoms: _115  and  _116
REMARK   54  A    between atoms: _115  and  _118
REMARK   55  A    between atoms: _118  and  _119
REMARK   56  A    between atoms: _122  and  _124
REMARK   57  A    between atoms: _124  and  _125
REMARK   58  A    between atoms: _124  and  _127
REMARK   59  A    between atoms: _127  and  _128
REMARK   60  A    between atoms: _131  and  _133
REMARK   61  A    between atoms: _133  and  _134
REMARK   62  A    between atoms: _133  and  _136
REMARK   63  A    between atoms: _136  and  _137
REMARK   64  A    between atoms: _140  and  _142
REMARK   65  A    between atoms: _142  and  _143
REMARK   66  A    between atoms: _142  and  _145
REMARK   67  A    between atoms: _145  and  _146
REMARK   68  A    between atoms: _149  and  _151
REMARK   69  A    between atoms: _151  and  _152
REMARK   70  A    between atoms: _151  and  _154
REMARK   71  A    between atoms: _154  and  _155
REMARK   72  A    between atoms: _158  and  _160
REMARK   73  A    between atoms: _160  and  _161
REMARK   74  A    between atoms: _160  and  _163
REMARK   75  A    between atoms: _163  and  _164
REMARK   76  A    between atoms: _170  and  _172
REMARK   77  A    between atoms: _172  and  _173
REMARK   78  A    between atoms: _172  and  _175
REMARK   79  A    between atoms: _175  and  _176
REMARK   80  A    between atoms: _176  and  _177
REMARK   81  A    between atoms: _179  and  _181
REMARK   82  A    between atoms: _181  and  _182
REMARK   83  A    between atoms: _181  and  _184
REMARK   84  A    between atoms: _184  and  _185
REMARK   85  A    between atoms: _187  and  _189
REMARK   86  A    between atoms: _189  and  _190
REMARK   87  A    between atoms: _189  and  _192
REMARK   88  A    between atoms: _192  and  _193
REMARK   89  A    between atoms: _199  and  _201
REMARK   90  A    between atoms: _201  and  _202
REMARK   91  A    between atoms: _201  and  _204
REMARK   92  A    between atoms: _204  and  _205
REMARK   93  A    between atoms: _208  and  _210
REMARK   94  A    between atoms: _210  and  _211
REMARK   95  A    between atoms: _210  and  _213
REMARK   96  A    between atoms: _213  and  _214
REMARK   97  A    between atoms: _214  and  _215
REMARK   98  A    between atoms: _218  and  _220
REMARK   99  A    between atoms: _220  and  _221
REMARK  100  A    between atoms: _220  and  _223
REMARK  101  A    between atoms: _223  and  _224
REMARK  102  A    between atoms: _227  and  _229
REMARK  103  A    between atoms: _229  and  _230
REMARK  104  A    between atoms: _229  and  _232
REMARK  105  A    between atoms: _232  and  _233
REMARK  106  A    between atoms: _236  and  _238
REMARK  107  A    between atoms: _238  and  _239
REMARK  108  A    between atoms: _238  and  _241
REMARK  109  A    between atoms: _241  and  _242
REMARK  110  A    between atoms: _247  and  _249
REMARK  111  A    between atoms: _249  and  _250
REMARK  112  A    between atoms: _249  and  _252
REMARK  113  A    between atoms: _252  and  _253
REMARK  114  A    between atoms: _256  and  _258
REMARK  115  A    between atoms: _258  and  _259
REMARK  116  A    between atoms: _258  and  _261
REMARK  117  A    between atoms: _261  and  _262
REMARK  118  A    between atoms: _267  and  _269
REMARK  119  A    between atoms: _269  and  _270
REMARK  120  A    between atoms: _269  and  _272
REMARK  121  A    between atoms: _272  and  _273
REMARK  122  A    between atoms: _277  and  _278
REMARK  123  A    between atoms: _283  and  _285
REMARK  124  A    between atoms: _285  and  _286
REMARK  125  A    between atoms: _285  and  _288
REMARK  126  A    between atoms: _292  and  _293
REMARK  127  A    between atoms: _298  and  _300
REMARK  128  A    between atoms: _300  and  _301
REMARK  129  A    between atoms: _300  and  _303
REMARK  130  A    between atoms: _303  and  _304
REMARK  131  A    between atoms: _311  and  _312
REMARK  132  A    between atoms: _317  and  _319
REMARK  133  A    between atoms: _319  and  _320
REMARK  134  A    between atoms: _319  and  _322
REMARK  135  A    between atoms: _322  and  _323
REMARK  136  A    between atoms: _325  and  _327
REMARK  137  A    between atoms: _327  and  _328
REMARK  138  A    between atoms: _327  and  _330
REMARK  139  A    between atoms: _330  and  _331
REMARK  140  A    between atoms: _341  and  _343
REMARK  141  A    between atoms: _343  and  _344
REMARK  142  A    between atoms: _343  and  _346
REMARK  143  A    between atoms: _346  and  _347
REMARK  144  A    between atoms: _351  and  ZN_361
REMARK  145  A    between atoms: _352  and  _354
REMARK  146  A    between atoms: _354  and  _355
REMARK  147  A    between atoms: _354  and  _357
REMARK  148  A    between atoms: _357  and  _358
REMARK                            x       y       z     vdW  Elec       q    Type
REMARK                         _______ _______ _______ _____ _____    ______ ____
ROOT
ATOM      1  O   HOH     1     -26.940   3.002  50.861  0.00  0.00    +0.000 OA
ENDROOT
TORSDOF 0
REMARK  Name = ../refined-set-2016/4fai/4fai_pocket.pdb
REMARK  148 active torsions:
REMARK  status: ('A' for Active; 'I' for Inactive)
REMARK    1  A    between atoms: _1  and  _3
REMARK    2  A    between atoms: _3  and  _4
REMARK    3  A    between atoms: _3  and  _6
REMARK    4  A    between atoms: _6  and  _7
REMARK    5  A    between atoms: _12  and  _14
REMARK    6  A    between atoms: _14  and  _15
REMARK    7  A    between atoms: _14  and  _17
REMARK    8  A    between atoms: _17  and  _18
REMARK    9  A    between atoms: _18  and  _19
REMARK   10  A    between atoms: _19  and  _20
REMARK   11  A    between atoms: _20  and  _21
REMARK   12  A    between atoms: _25  and  _27
REMARK   13  A    between atoms: _27  and  _28
REMARK   14  A    between atoms: _27  and  _30
REMARK   15  A    between atoms: _30  and  _31
REMARK   16  A    between atoms: _37  and  _39
REMARK   17  A    between atoms: _39  and  _40
REMARK   18  A    between atoms: _39  and  _42
REMARK   19  A    between atoms: _42  and  _43
REMARK   20  A    between atoms: _46  and  _48
REMARK   21  A    between atoms: _48  and  _49
REMARK   22  A    between atoms: _48  and  _51
REMARK   23  A    between atoms: _51  and  _52
REMARK   24  A    between atoms: _52  and  _54
REMARK   25  A    between atoms: _54  and  ZN_361
REMARK   26  A    between atoms: _55  and  _57
REMARK   27  A    between atoms: _57  and  _58
REMARK   28  A    between atoms: _57  and  _60
REMARK   29  A    between atoms: _60  and  _61
REMARK   30  A    between atoms: _63  and  _65
REMARK   31  A    between atoms: _65  and  _66
REMARK   32  A    between atoms: _65  and  _68
REMARK   33  A    between atoms: _68  and  _69
REMARK   34  A    between atoms: _69  and  _70
REMARK   35  A    between atoms: _73  and  _75
REMARK   36  A    between atoms: _75  and  _76
REMARK   37  A    between atoms: _75  and  _78
REMARK   38  A    between atoms: _78  and  _79
REMARK   39  A    between atoms: _79  and  _80
REMARK   40  A    between atoms: _80  and  _81
REMARK   41  A    between atoms: _81  and  ZN_361
REMARK   42  A    between atoms: _83  and  _85
REMARK   43  A    between atoms: _85  and  _86
REMARK   44  A    between atoms: _89  and  _91
REMARK   45  A    between atoms: _91  and  _92
REMARK   46  A    between atoms: _91  and  _94
REMARK   47  A    between atoms: _94  and  _95
REMARK   48  A    between atoms: _105  and  _107
REMARK   49  A    between atoms: _107  and  _108
REMARK   50  A    between atoms: _107  and  _110
REMARK   51  A    between atoms: _110  and  _111
REMARK   52  A    between atoms: _113  and  _115
REMARK   53  A    between atoms: _115  and  _116
REMARK   54  A    between atoms: _115  and  _118
REMARK   55  A    between atoms: _118  and  _119
REMARK   56  A    between atoms: _122  and  _124
REMARK   57  A    between atoms: _124  and  _125
REMARK   58  A    between atoms: _124  and  _127
REMARK   59  A    between atoms: _127  and  _128
REMARK   60  A    between atoms: _131  and  _133
REMARK   61  A    between atoms: _133  and  _134
REMARK   62  A    between atoms: _133  and  _136
REMARK   63  A    between atoms: _136  and  _137
REMARK   64  A    between atoms: _140  and  _142
REMARK   65  A    between atoms: _142  and  _143
REMARK   66  A    between atoms: _142  and  _145
REMARK   67  A    between atoms: _145  and  _146
REMARK   68  A    between atoms: _149  and  _151
REMARK   69  A    between atoms: _151  and  _152
REMARK   70  A    between atoms: _151  and  _154
REMARK   71  A    between atoms: _154  and  _155
REMARK   72  A    between atoms: _158  and  _160
REMARK   73  A    between atoms: _160  and  _161
REMARK   74  A    between atoms: _160  and  _163
REMARK   75  A    between atoms: _163  and  _164
REMARK   76  A    between atoms: _170  and  _172
REMARK   77  A    between atoms: _172  and  _173
REMARK   78  A    between atoms: _172  and  _175
REMARK   79  A    between atoms: _175  and  _176
REMARK   80  A    between atoms: _176  and  _177
REMARK   81  A    between atoms: _179  and  _181
REMARK   82  A    between atoms: _181  and  _182
REMARK   83  A    between atoms: _181  and  _184
REMARK   84  A    between atoms: _184  and  _185
REMARK   85  A    between atoms: _187  and  _189
REMARK   86  A    between atoms: _189  and  _190
REMARK   87  A    between atoms: _189  and  _192
REMARK   88  A    between atoms: _192  and  _193
REMARK   89  A    between atoms: _199  and  _201
REMARK   90  A    between atoms: _201  and  _202
REMARK   91  A    between atoms: _201  and  _204
REMARK   92  A    between atoms: _204  and  _205
REMARK   93  A    between atoms: _208  and  _210
REMARK   94  A    between atoms: _210  and  _211
REMARK   95  A    between atoms: _210  and  _213
REMARK   96  A    between atoms: _213  and  _214
REMARK   97  A    between atoms: _214  and  _215
REMARK   98  A    between atoms: _218  and  _220
REMARK   99  A    between atoms: _220  and  _221
REMARK  100  A    between atoms: _220  and  _223
REMARK  101  A    between atoms: _223  and  _224
REMARK  102  A    between atoms: _227  and  _229
REMARK  103  A    between atoms: _229  and  _230
REMARK  104  A    between atoms: _229  and  _232
REMARK  105  A    between atoms: _232  and  _233
REMARK  106  A    between atoms: _236  and  _238
REMARK  107  A    between atoms: _238  and  _239
REMARK  108  A    between atoms: _238  and  _241
REMARK  109  A    between atoms: _241  and  _242
REMARK  110  A    between atoms: _247  and  _249
REMARK  111  A    between atoms: _249  and  _250
REMARK  112  A    between atoms: _249  and  _252
REMARK  113  A    between atoms: _252  and  _253
REMARK  114  A    between atoms: _256  and  _258
REMARK  115  A    between atoms: _258  and  _259
REMARK  116  A    between atoms: _258  and  _261
REMARK  117  A    between atoms: _261  and  _262
REMARK  118  A    between atoms: _267  and  _269
REMARK  119  A    between atoms: _269  and  _270
REMARK  120  A    between atoms: _269  and  _272
REMARK  121  A    between atoms: _272  and  _273
REMARK  122  A    between atoms: _277  and  _278
REMARK  123  A    between atoms: _283  and  _285
REMARK  124  A    between atoms: _285  and  _286
REMARK  125  A    between atoms: _285  and  _288
REMARK  126  A    between atoms: _292  and  _293
REMARK  127  A    between atoms: _298  and  _300
REMARK  128  A    between atoms: _300  and  _301
REMARK  129  A    between atoms: _300  and  _303
REMARK  130  A    between atoms: _303  and  _304
REMARK  131  A    between atoms: _311  and  _312
REMARK  132  A    between atoms: _317  and  _319
REMARK  133  A    between atoms: _319  and  _320
REMARK  134  A    between atoms: _319  and  _322
REMARK  135  A    between atoms: _322  and  _323
REMARK  136  A    between atoms: _325  and  _327
REMARK  137  A    between atoms: _327  and  _328
REMARK  138  A    between atoms: _327  and  _330
REMARK  139  A    between atoms: _330  and  _331
REMARK  140  A    between atoms: _341  and  _343
REMARK  141  A    between atoms: _343  and  _344
REMARK  142  A    between atoms: _343  and  _346
REMARK  143  A    between atoms: _346  and  _347
REMARK  144  A    between atoms: _351  and  ZN_361
REMARK  145  A    between atoms: _352  and  _354
REMARK  146  A    between atoms: _354  and  _355
REMARK  147  A    between atoms: _354  and  _357
REMARK  148  A    between atoms: _357  and  _358
REMARK                            x       y       z     vdW  Elec       q    Type
REMARK                         _______ _______ _______ _____ _____    ______ ____
ROOT
ATOM      1  O   HOH     1     -29.962  -1.915  51.049  0.00  0.00    +0.000 OA
ENDROOT
TORSDOF 0
REMARK  Name = ../refined-set-2016/4fai/4fai_pocket.pdb
REMARK  148 active torsions:
REMARK  status: ('A' for Active; 'I' for Inactive)
REMARK    1  A    between atoms: _1  and  _3
REMARK    2  A    between atoms: _3  and  _4
REMARK    3  A    between atoms: _3  and  _6
REMARK    4  A    between atoms: _6  and  _7
REMARK    5  A    between atoms: _12  and  _14
REMARK    6  A    between atoms: _14  and  _15
REMARK    7  A    between atoms: _14  and  _17
REMARK    8  A    between atoms: _17  and  _18
REMARK    9  A    between atoms: _18  and  _19
REMARK   10  A    between atoms: _19  and  _20
REMARK   11  A    between atoms: _20  and  _21
REMARK   12  A    between atoms: _25  and  _27
REMARK   13  A    between atoms: _27  and  _28
REMARK   14  A    between atoms: _27  and  _30
REMARK   15  A    between atoms: _30  and  _31
REMARK   16  A    between atoms: _37  and  _39
REMARK   17  A    between atoms: _39  and  _40
REMARK   18  A    between atoms: _39  and  _42
REMARK   19  A    between atoms: _42  and  _43
REMARK   20  A    between atoms: _46  and  _48
REMARK   21  A    between atoms: _48  and  _49
REMARK   22  A    between atoms: _48  and  _51
REMARK   23  A    between atoms: _51  and  _52
REMARK   24  A    between atoms: _52  and  _54
REMARK   25  A    between atoms: _54  and  ZN_361
REMARK   26  A    between atoms: _55  and  _57
REMARK   27  A    between atoms: _57  and  _58
REMARK   28  A    between atoms: _57  and  _60
REMARK   29  A    between atoms: _60  and  _61
REMARK   30  A    between atoms: _63  and  _65
REMARK   31  A    between atoms: _65  and  _66
REMARK   32  A    between atoms: _65  and  _68
REMARK   33  A    between atoms: _68  and  _69
REMARK   34  A    between atoms: _69  and  _70
REMARK   35  A    between atoms: _73  and  _75
REMARK   36  A    between atoms: _75  and  _76
REMARK   37  A    between atoms: _75  and  _78
REMARK   38  A    between atoms: _78  and  _79
REMARK   39  A    between atoms: _79  and  _80
REMARK   40  A    between atoms: _80  and  _81
REMARK   41  A    between atoms: _81  and  ZN_361
REMARK   42  A    between atoms: _83  and  _85
REMARK   43  A    between atoms: _85  and  _86
REMARK   44  A    between atoms: _89  and  _91
REMARK   45  A    between atoms: _91  and  _92
REMARK   46  A    between atoms: _91  and  _94
REMARK   47  A    between atoms: _94  and  _95
REMARK   48  A    between atoms: _105  and  _107
REMARK   49  A    between atoms: _107  and  _108
REMARK   50  A    between atoms: _107  and  _110
REMARK   51  A    between atoms: _110  and  _111
REMARK   52  A    between atoms: _113  and  _115
REMARK   53  A    between atoms: _115  and  _116
REMARK   54  A    between atoms: _115  and  _118
REMARK   55  A    between atoms: _118  and  _119
REMARK   56  A    between atoms: _122  and  _124
REMARK   57  A    between atoms: _124  and  _125
REMARK   58  A    between atoms: _124  and  _127
REMARK   59  A    between atoms: _127  and  _128
REMARK   60  A    between atoms: _131  and  _133
REMARK   61  A    between atoms: _133  and  _134
REMARK   62  A    between atoms: _133  and  _136
REMARK   63  A    between atoms: _136  and  _137
REMARK   64  A    between atoms: _140  and  _142
REMARK   65  A    between atoms: _142  and  _143
REMARK   66  A    between atoms: _142  and  _145
REMARK   67  A    between atoms: _145  and  _146
REMARK   68  A    between atoms: _149  and  _151
REMARK   69  A    between atoms: _151  and  _152
REMARK   70  A    between atoms: _151  and  _154
REMARK   71  A    between atoms: _154  and  _155
REMARK   72  A    between atoms: _158  and  _160
REMARK   73  A    between atoms: _160  and  _161
REMARK   74  A    between atoms: _160  and  _163
REMARK   75  A    between atoms: _163  and  _164
REMARK   76  A    between atoms: _170  and  _172
REMARK   77  A    between atoms: _172  and  _173
REMARK   78  A    between atoms: _172  and  _175
REMARK   79  A    between atoms: _175  and  _176
REMARK   80  A    between atoms: _176  and  _177
REMARK   81  A    between atoms: _179  and  _181
REMARK   82  A    between atoms: _181  and  _182
REMARK   83  A    between atoms: _181  and  _184
REMARK   84  A    between atoms: _184  and  _185
REMARK   85  A    between atoms: _187  and  _189
REMARK   86  A    between atoms: _189  and  _190
REMARK   87  A    between atoms: _189  and  _192
REMARK   88  A    between atoms: _192  and  _193
REMARK   89  A    between atoms: _199  and  _201
REMARK   90  A    between atoms: _201  and  _202
REMARK   91  A    between atoms: _201  and  _204
REMARK   92  A    between atoms: _204  and  _205
REMARK   93  A    between atoms: _208  and  _210
REMARK   94  A    between atoms: _210  and  _211
REMARK   95  A    between atoms: _210  and  _213
REMARK   96  A    between atoms: _213  and  _214
REMARK   97  A    between atoms: _214  and  _215
REMARK   98  A    between atoms: _218  and  _220
REMARK   99  A    between atoms: _220  and  _221
REMARK  100  A    between atoms: _220  and  _223
REMARK  101  A    between atoms: _223  and  _224
REMARK  102  A    between atoms: _227  and  _229
REMARK  103  A    between atoms: _229  and  _230
REMARK  104  A    between atoms: _229  and  _232
REMARK  105  A    between atoms: _232  and  _233
REMARK  106  A    between atoms: _236  and  _238
REMARK  107  A    between atoms: _238  and  _239
REMARK  108  A    between atoms: _238  and  _241
REMARK  109  A    between atoms: _241  and  _242
REMARK  110  A    between atoms: _247  and  _249
REMARK  111  A    between atoms: _249  and  _250
REMARK  112  A    between atoms: _249  and  _252
REMARK  113  A    between atoms: _252  and  _253
REMARK  114  A    between atoms: _256  and  _258
REMARK  115  A    between atoms: _258  and  _259
REMARK  116  A    between atoms: _258  and  _261
REMARK  117  A    between atoms: _261  and  _262
REMARK  118  A    between atoms: _267  and  _269
REMARK  119  A    between atoms: _269  and  _270
REMARK  120  A    between atoms: _269  and  _272
REMARK  121  A    between atoms: _272  and  _273
REMARK  122  A    between atoms: _277  and  _278
REMARK  123  A    between atoms: _283  and  _285
REMARK  124  A    between atoms: _285  and  _286
REMARK  125  A    between atoms: _285  and  _288
REMARK  126  A    between atoms: _292  and  _293
REMARK  127  A    between atoms: _298  and  _300
REMARK  128  A    between atoms: _300  and  _301
REMARK  129  A    between atoms: _300  and  _303
REMARK  130  A    between atoms: _303  and  _304
REMARK  131  A    between atoms: _311  and  _312
REMARK  132  A    between atoms: _317  and  _319
REMARK  133  A    between atoms: _319  and  _320
REMARK  134  A    between atoms: _319  and  _322
REMARK  135  A    between atoms: _322  and  _323
REMARK  136  A    between atoms: _325  and  _327
REMARK  137  A    between atoms: _327  and  _328
REMARK  138  A    between atoms: _327  and  _330
REMARK  139  A    between atoms: _330  and  _331
REMARK  140  A    between atoms: _341  and  _343
REMARK  141  A    between atoms: _343  and  _344
REMARK  142  A    between atoms: _343  and  _346
REMARK  143  A    between atoms: _346  and  _347
REMARK  144  A    between atoms: _351  and  ZN_361
REMARK  145  A    between atoms: _352  and  _354
REMARK  146  A    between atoms: _354  and  _355
REMARK  147  A    between atoms: _354  and  _357
REMARK  148  A    between atoms: _357  and  _358
REMARK                            x       y       z     vdW  Elec       q    Type
REMARK                         _______ _______ _______ _____ _____    ______ ____
ROOT
ATOM      1  O   HOH     1     -30.603   4.526  45.179  0.00  0.00    +0.000 OA
ENDROOT
TORSDOF 0
REMARK  Name = ../refined-set-2016/4fai/4fai_pocket.pdb
REMARK  148 active torsions:
REMARK  status: ('A' for Active; 'I' for Inactive)
REMARK    1  A    between atoms: _1  and  _3
REMARK    2  A    between atoms: _3  and  _4
REMARK    3  A    between atoms: _3  and  _6
REMARK    4  A    between atoms: _6  and  _7
REMARK    5  A    between atoms: _12  and  _14
REMARK    6  A    between atoms: _14  and  _15
REMARK    7  A    between atoms: _14  and  _17
REMARK    8  A    between atoms: _17  and  _18
REMARK    9  A    between atoms: _18  and  _19
REMARK   10  A    between atoms: _19  and  _20
REMARK   11  A    between atoms: _20  and  _21
REMARK   12  A    between atoms: _25  and  _27
REMARK   13  A    between atoms: _27  and  _28
REMARK   14  A    between atoms: _27  and  _30
REMARK   15  A    between atoms: _30  and  _31
REMARK   16  A    between atoms: _37  and  _39
REMARK   17  A    between atoms: _39  and  _40
REMARK   18  A    between atoms: _39  and  _42
REMARK   19  A    between atoms: _42  and  _43
REMARK   20  A    between atoms: _46  and  _48
REMARK   21  A    between atoms: _48  and  _49
REMARK   22  A    between atoms: _48  and  _51
REMARK   23  A    between atoms: _51  and  _52
REMARK   24  A    between atoms: _52  and  _54
REMARK   25  A    between atoms: _54  and  ZN_361
REMARK   26  A    between atoms: _55  and  _57
REMARK   27  A    between atoms: _57  and  _58
REMARK   28  A    between atoms: _57  and  _60
REMARK   29  A    between atoms: _60  and  _61
REMARK   30  A    between atoms: _63  and  _65
REMARK   31  A    between atoms: _65  and  _66
REMARK   32  A    between atoms: _65  and  _68
REMARK   33  A    between atoms: _68  and  _69
REMARK   34  A    between atoms: _69  and  _70
REMARK   35  A    between atoms: _73  and  _75
REMARK   36  A    between atoms: _75  and  _76
REMARK   37  A    between atoms: _75  and  _78
REMARK   38  A    between atoms: _78  and  _79
REMARK   39  A    between atoms: _79  and  _80
REMARK   40  A    between atoms: _80  and  _81
REMARK   41  A    between atoms: _81  and  ZN_361
REMARK   42  A    between atoms: _83  and  _85
REMARK   43  A    between atoms: _85  and  _86
REMARK   44  A    between atoms: _89  and  _91
REMARK   45  A    between atoms: _91  and  _92
REMARK   46  A    between atoms: _91  and  _94
REMARK   47  A    between atoms: _94  and  _95
REMARK   48  A    between atoms: _105  and  _107
REMARK   49  A    between atoms: _107  and  _108
REMARK   50  A    between atoms: _107  and  _110
REMARK   51  A    between atoms: _110  and  _111
REMARK   52  A    between atoms: _113  and  _115
REMARK   53  A    between atoms: _115  and  _116
REMARK   54  A    between atoms: _115  and  _118
REMARK   55  A    between atoms: _118  and  _119
REMARK   56  A    between atoms: _122  and  _124
REMARK   57  A    between atoms: _124  and  _125
REMARK   58  A    between atoms: _124  and  _127
REMARK   59  A    between atoms: _127  and  _128
REMARK   60  A    between atoms: _131  and  _133
REMARK   61  A    between atoms: _133  and  _134
REMARK   62  A    between atoms: _133  and  _136
REMARK   63  A    between atoms: _136  and  _137
REMARK   64  A    between atoms: _140  and  _142
REMARK   65  A    between atoms: _142  and  _143
REMARK   66  A    between atoms: _142  and  _145
REMARK   67  A    between atoms: _145  and  _146
REMARK   68  A    between atoms: _149  and  _151
REMARK   69  A    between atoms: _151  and  _152
REMARK   70  A    between atoms: _151  and  _154
REMARK   71  A    between atoms: _154  and  _155
REMARK   72  A    between atoms: _158  and  _160
REMARK   73  A    between atoms: _160  and  _161
REMARK   74  A    between atoms: _160  and  _163
REMARK   75  A    between atoms: _163  and  _164
REMARK   76  A    between atoms: _170  and  _172
REMARK   77  A    between atoms: _172  and  _173
REMARK   78  A    between atoms: _172  and  _175
REMARK   79  A    between atoms: _175  and  _176
REMARK   80  A    between atoms: _176  and  _177
REMARK   81  A    between atoms: _179  and  _181
REMARK   82  A    between atoms: _181  and  _182
REMARK   83  A    between atoms: _181  and  _184
REMARK   84  A    between atoms: _184  and  _185
REMARK   85  A    between atoms: _187  and  _189
REMARK   86  A    between atoms: _189  and  _190
REMARK   87  A    between atoms: _189  and  _192
REMARK   88  A    between atoms: _192  and  _193
REMARK   89  A    between atoms: _199  and  _201
REMARK   90  A    between atoms: _201  and  _202
REMARK   91  A    between atoms: _201  and  _204
REMARK   92  A    between atoms: _204  and  _205
REMARK   93  A    between atoms: _208  and  _210
REMARK   94  A    between atoms: _210  and  _211
REMARK   95  A    between atoms: _210  and  _213
REMARK   96  A    between atoms: _213  and  _214
REMARK   97  A    between atoms: _214  and  _215
REMARK   98  A    between atoms: _218  and  _220
REMARK   99  A    between atoms: _220  and  _221
REMARK  100  A    between atoms: _220  and  _223
REMARK  101  A    between atoms: _223  and  _224
REMARK  102  A    between atoms: _227  and  _229
REMARK  103  A    between atoms: _229  and  _230
REMARK  104  A    between atoms: _229  and  _232
REMARK  105  A    between atoms: _232  and  _233
REMARK  106  A    between atoms: _236  and  _238
REMARK  107  A    between atoms: _238  and  _239
REMARK  108  A    between atoms: _238  and  _241
REMARK  109  A    between atoms: _241  and  _242
REMARK  110  A    between atoms: _247  and  _249
REMARK  111  A    between atoms: _249  and  _250
REMARK  112  A    between atoms: _249  and  _252
REMARK  113  A    between atoms: _252  and  _253
REMARK  114  A    between atoms: _256  and  _258
REMARK  115  A    between atoms: _258  and  _259
REMARK  116  A    between atoms: _258  and  _261
REMARK  117  A    between atoms: _261  and  _262
REMARK  118  A    between atoms: _267  and  _269
REMARK  119  A    between atoms: _269  and  _270
REMARK  120  A    between atoms: _269  and  _272
REMARK  121  A    between atoms: _272  and  _273
REMARK  122  A    between atoms: _277  and  _278
REMARK  123  A    between atoms: _283  and  _285
REMARK  124  A    between atoms: _285  and  _286
REMARK  125  A    between atoms: _285  and  _288
REMARK  126  A    between atoms: _292  and  _293
REMARK  127  A    between atoms: _298  and  _300
REMARK  128  A    between atoms: _300  and  _301
REMARK  129  A    between atoms: _300  and  _303
REMARK  130  A    between atoms: _303  and  _304
REMARK  131  A    between atoms: _311  and  _312
REMARK  132  A    between atoms: _317  and  _319
REMARK  133  A    between atoms: _319  and  _320
REMARK  134  A    between atoms: _319  and  _322
REMARK  135  A    between atoms: _322  and  _323
REMARK  136  A    between atoms: _325  and  _327
REMARK  137  A    between atoms: _327  and  _328
REMARK  138  A    between atoms: _327  and  _330
REMARK  139  A    between atoms: _330  and  _331
REMARK  140  A    between atoms: _341  and  _343
REMARK  141  A    between atoms: _343  and  _344
REMARK  142  A    between atoms: _343  and  _346
REMARK  143  A    between atoms: _346  and  _347
REMARK  144  A    between atoms: _351  and  ZN_361
REMARK  145  A    between atoms: _352  and  _354
REMARK  146  A    between atoms: _354  and  _355
REMARK  147  A    between atoms: _354  and  _357
REMARK  148  A    between atoms: _357  and  _358
REMARK                            x       y       z     vdW  Elec       q    Type
REMARK                         _______ _______ _______ _____ _____    ______ ____
ROOT
ATOM      1  O   HOH     1     -21.235   0.163  44.822  0.00  0.00    +0.000 OA
ENDROOT
TORSDOF 0
REMARK  Name = ../refined-set-2016/4fai/4fai_pocket.pdb
REMARK  148 active torsions:
REMARK  status: ('A' for Active; 'I' for Inactive)
REMARK    1  A    between atoms: _1  and  _3
REMARK    2  A    between atoms: _3  and  _4
REMARK    3  A    between atoms: _3  and  _6
REMARK    4  A    between atoms: _6  and  _7
REMARK    5  A    between atoms: _12  and  _14
REMARK    6  A    between atoms: _14  and  _15
REMARK    7  A    between atoms: _14  and  _17
REMARK    8  A    between atoms: _17  and  _18
REMARK    9  A    between atoms: _18  and  _19
REMARK   10  A    between atoms: _19  and  _20
REMARK   11  A    between atoms: _20  and  _21
REMARK   12  A    between atoms: _25  and  _27
REMARK   13  A    between atoms: _27  and  _28
REMARK   14  A    between atoms: _27  and  _30
REMARK   15  A    between atoms: _30  and  _31
REMARK   16  A    between atoms: _37  and  _39
REMARK   17  A    between atoms: _39  and  _40
REMARK   18  A    between atoms: _39  and  _42
REMARK   19  A    between atoms: _42  and  _43
REMARK   20  A    between atoms: _46  and  _48
REMARK   21  A    between atoms: _48  and  _49
REMARK   22  A    between atoms: _48  and  _51
REMARK   23  A    between atoms: _51  and  _52
REMARK   24  A    between atoms: _52  and  _54
REMARK   25  A    between atoms: _54  and  ZN_361
REMARK   26  A    between atoms: _55  and  _57
REMARK   27  A    between atoms: _57  and  _58
REMARK   28  A    between atoms: _57  and  _60
REMARK   29  A    between atoms: _60  and  _61
REMARK   30  A    between atoms: _63  and  _65
REMARK   31  A    between atoms: _65  and  _66
REMARK   32  A    between atoms: _65  and  _68
REMARK   33  A    between atoms: _68  and  _69
REMARK   34  A    between atoms: _69  and  _70
REMARK   35  A    between atoms: _73  and  _75
REMARK   36  A    between atoms: _75  and  _76
REMARK   37  A    between atoms: _75  and  _78
REMARK   38  A    between atoms: _78  and  _79
REMARK   39  A    between atoms: _79  and  _80
REMARK   40  A    between atoms: _80  and  _81
REMARK   41  A    between atoms: _81  and  ZN_361
REMARK   42  A    between atoms: _83  and  _85
REMARK   43  A    between atoms: _85  and  _86
REMARK   44  A    between atoms: _89  and  _91
REMARK   45  A    between atoms: _91  and  _92
REMARK   46  A    between atoms: _91  and  _94
REMARK   47  A    between atoms: _94  and  _95
REMARK   48  A    between atoms: _105  and  _107
REMARK   49  A    between atoms: _107  and  _108
REMARK   50  A    between atoms: _107  and  _110
REMARK   51  A    between atoms: _110  and  _111
REMARK   52  A    between atoms: _113  and  _115
REMARK   53  A    between atoms: _115  and  _116
REMARK   54  A    between atoms: _115  and  _118
REMARK   55  A    between atoms: _118  and  _119
REMARK   56  A    between atoms: _122  and  _124
REMARK   57  A    between atoms: _124  and  _125
REMARK   58  A    between atoms: _124  and  _127
REMARK   59  A    between atoms: _127  and  _128
REMARK   60  A    between atoms: _131  and  _133
REMARK   61  A    between atoms: _133  and  _134
REMARK   62  A    between atoms: _133  and  _136
REMARK   63  A    between atoms: _136  and  _137
REMARK   64  A    between atoms: _140  and  _142
REMARK   65  A    between atoms: _142  and  _143
REMARK   66  A    between atoms: _142  and  _145
REMARK   67  A    between atoms: _145  and  _146
REMARK   68  A    between atoms: _149  and  _151
REMARK   69  A    between atoms: _151  and  _152
REMARK   70  A    between atoms: _151  and  _154
REMARK   71  A    between atoms: _154  and  _155
REMARK   72  A    between atoms: _158  and  _160
REMARK   73  A    between atoms: _160  and  _161
REMARK   74  A    between atoms: _160  and  _163
REMARK   75  A    between atoms: _163  and  _164
REMARK   76  A    between atoms: _170  and  _172
REMARK   77  A    between atoms: _172  and  _173
REMARK   78  A    between atoms: _172  and  _175
REMARK   79  A    between atoms: _175  and  _176
REMARK   80  A    between atoms: _176  and  _177
REMARK   81  A    between atoms: _179  and  _181
REMARK   82  A    between atoms: _181  and  _182
REMARK   83  A    between atoms: _181  and  _184
REMARK   84  A    between atoms: _184  and  _185
REMARK   85  A    between atoms: _187  and  _189
REMARK   86  A    between atoms: _189  and  _190
REMARK   87  A    between atoms: _189  and  _192
REMARK   88  A    between atoms: _192  and  _193
REMARK   89  A    between atoms: _199  and  _201
REMARK   90  A    between atoms: _201  and  _202
REMARK   91  A    between atoms: _201  and  _204
REMARK   92  A    between atoms: _204  and  _205
REMARK   93  A    between atoms: _208  and  _210
REMARK   94  A    between atoms: _210  and  _211
REMARK   95  A    between atoms: _210  and  _213
REMARK   96  A    between atoms: _213  and  _214
REMARK   97  A    between atoms: _214  and  _215
REMARK   98  A    between atoms: _218  and  _220
REMARK   99  A    between atoms: _220  and  _221
REMARK  100  A    between atoms: _220  and  _223
REMARK  101  A    between atoms: _223  and  _224
REMARK  102  A    between atoms: _227  and  _229
REMARK  103  A    between atoms: _229  and  _230
REMARK  104  A    between atoms: _229  and  _232
REMARK  105  A    between atoms: _232  and  _233
REMARK  106  A    between atoms: _236  and  _238
REMARK  107  A    between atoms: _238  and  _239
REMARK  108  A    between atoms: _238  and  _241
REMARK  109  A    between atoms: _241  and  _242
REMARK  110  A    between atoms: _247  and  _249
REMARK  111  A    between atoms: _249  and  _250
REMARK  112  A    between atoms: _249  and  _252
REMARK  113  A    between atoms: _252  and  _253
REMARK  114  A    between atoms: _256  and  _258
REMARK  115  A    between atoms: _258  and  _259
REMARK  116  A    between atoms: _258  and  _261
REMARK  117  A    between atoms: _261  and  _262
REMARK  118  A    between atoms: _267  and  _269
REMARK  119  A    between atoms: _269  and  _270
REMARK  120  A    between atoms: _269  and  _272
REMARK  121  A    between atoms: _272  and  _273
REMARK  122  A    between atoms: _277  and  _278
REMARK  123  A    between atoms: _283  and  _285
REMARK  124  A    between atoms: _285  and  _286
REMARK  125  A    between atoms: _285  and  _288
REMARK  126  A    between atoms: _292  and  _293
REMARK  127  A    between atoms: _298  and  _300
REMARK  128  A    between atoms: _300  and  _301
REMARK  129  A    between atoms: _300  and  _303
REMARK  130  A    between atoms: _303  and  _304
REMARK  131  A    between atoms: _311  and  _312
REMARK  132  A    between atoms: _317  and  _319
REMARK  133  A    between atoms: _319  and  _320
REMARK  134  A    between atoms: _319  and  _322
REMARK  135  A    between atoms: _322  and  _323
REMARK  136  A    between atoms: _325  and  _327
REMARK  137  A    between atoms: _327  and  _328
REMARK  138  A    between atoms: _327  and  _330
REMARK  139  A    between atoms: _330  and  _331
REMARK  140  A    between atoms: _341  and  _343
REMARK  141  A    between atoms: _343  and  _344
REMARK  142  A    between atoms: _343  and  _346
REMARK  143  A    between atoms: _346  and  _347
REMARK  144  A    between atoms: _351  and  ZN_361
REMARK  145  A    between atoms: _352  and  _354
REMARK  146  A    between atoms: _354  and  _355
REMARK  147  A    between atoms: _354  and  _357
REMARK  148  A    between atoms: _357  and  _358
REMARK                            x       y       z     vdW  Elec       q    Type
REMARK                         _______ _______ _______ _____ _____    ______ ____
ROOT
ATOM      1  O   HOH     1     -33.015  -9.287  43.807  0.00  0.00    +0.000 OA
ENDROOT
TORSDOF 0
REMARK  Name = ../refined-set-2016/4fai/4fai_pocket.pdb
REMARK  148 active torsions:
REMARK  status: ('A' for Active; 'I' for Inactive)
REMARK    1  A    between atoms: _1  and  _3
REMARK    2  A    between atoms: _3  and  _4
REMARK    3  A    between atoms: _3  and  _6
REMARK    4  A    between atoms: _6  and  _7
REMARK    5  A    between atoms: _12  and  _14
REMARK    6  A    between atoms: _14  and  _15
REMARK    7  A    between atoms: _14  and  _17
REMARK    8  A    between atoms: _17  and  _18
REMARK    9  A    between atoms: _18  and  _19
REMARK   10  A    between atoms: _19  and  _20
REMARK   11  A    between atoms: _20  and  _21
REMARK   12  A    between atoms: _25  and  _27
REMARK   13  A    between atoms: _27  and  _28
REMARK   14  A    between atoms: _27  and  _30
REMARK   15  A    between atoms: _30  and  _31
REMARK   16  A    between atoms: _37  and  _39
REMARK   17  A    between atoms: _39  and  _40
REMARK   18  A    between atoms: _39  and  _42
REMARK   19  A    between atoms: _42  and  _43
REMARK   20  A    between atoms: _46  and  _48
REMARK   21  A    between atoms: _48  and  _49
REMARK   22  A    between atoms: _48  and  _51
REMARK   23  A    between atoms: _51  and  _52
REMARK   24  A    between atoms: _52  and  _54
REMARK   25  A    between atoms: _54  and  ZN_361
REMARK   26  A    between atoms: _55  and  _57
REMARK   27  A    between atoms: _57  and  _58
REMARK   28  A    between atoms: _57  and  _60
REMARK   29  A    between atoms: _60  and  _61
REMARK   30  A    between atoms: _63  and  _65
REMARK   31  A    between atoms: _65  and  _66
REMARK   32  A    between atoms: _65  and  _68
REMARK   33  A    between atoms: _68  and  _69
REMARK   34  A    between atoms: _69  and  _70
REMARK   35  A    between atoms: _73  and  _75
REMARK   36  A    between atoms: _75  and  _76
REMARK   37  A    between atoms: _75  and  _78
REMARK   38  A    between atoms: _78  and  _79
REMARK   39  A    between atoms: _79  and  _80
REMARK   40  A    between atoms: _80  and  _81
REMARK   41  A    between atoms: _81  and  ZN_361
REMARK   42  A    between atoms: _83  and  _85
REMARK   43  A    between atoms: _85  and  _86
REMARK   44  A    between atoms: _89  and  _91
REMARK   45  A    between atoms: _91  and  _92
REMARK   46  A    between atoms: _91  and  _94
REMARK   47  A    between atoms: _94  and  _95
REMARK   48  A    between atoms: _105  and  _107
REMARK   49  A    between atoms: _107  and  _108
REMARK   50  A    between atoms: _107  and  _110
REMARK   51  A    between atoms: _110  and  _111
REMARK   52  A    between atoms: _113  and  _115
REMARK   53  A    between atoms: _115  and  _116
REMARK   54  A    between atoms: _115  and  _118
REMARK   55  A    between atoms: _118  and  _119
REMARK   56  A    between atoms: _122  and  _124
REMARK   57  A    between atoms: _124  and  _125
REMARK   58  A    between atoms: _124  and  _127
REMARK   59  A    between atoms: _127  and  _128
REMARK   60  A    between atoms: _131  and  _133
REMARK   61  A    between atoms: _133  and  _134
REMARK   62  A    between atoms: _133  and  _136
REMARK   63  A    between atoms: _136  and  _137
REMARK   64  A    between atoms: _140  and  _142
REMARK   65  A    between atoms: _142  and  _143
REMARK   66  A    between atoms: _142  and  _145
REMARK   67  A    between atoms: _145  and  _146
REMARK   68  A    between atoms: _149  and  _151
REMARK   69  A    between atoms: _151  and  _152
REMARK   70  A    between atoms: _151  and  _154
REMARK   71  A    between atoms: _154  and  _155
REMARK   72  A    between atoms: _158  and  _160
REMARK   73  A    between atoms: _160  and  _161
REMARK   74  A    between atoms: _160  and  _163
REMARK   75  A    between atoms: _163  and  _164
REMARK   76  A    between atoms: _170  and  _172
REMARK   77  A    between atoms: _172  and  _173
REMARK   78  A    between atoms: _172  and  _175
REMARK   79  A    between atoms: _175  and  _176
REMARK   80  A    between atoms: _176  and  _177
REMARK   81  A    between atoms: _179  and  _181
REMARK   82  A    between atoms: _181  and  _182
REMARK   83  A    between atoms: _181  and  _184
REMARK   84  A    between atoms: _184  and  _185
REMARK   85  A    between atoms: _187  and  _189
REMARK   86  A    between atoms: _189  and  _190
REMARK   87  A    between atoms: _189  and  _192
REMARK   88  A    between atoms: _192  and  _193
REMARK   89  A    between atoms: _199  and  _201
REMARK   90  A    between atoms: _201  and  _202
REMARK   91  A    between atoms: _201  and  _204
REMARK   92  A    between atoms: _204  and  _205
REMARK   93  A    between atoms: _208  and  _210
REMARK   94  A    between atoms: _210  and  _211
REMARK   95  A    between atoms: _210  and  _213
REMARK   96  A    between atoms: _213  and  _214
REMARK   97  A    between atoms: _214  and  _215
REMARK   98  A    between atoms: _218  and  _220
REMARK   99  A    between atoms: _220  and  _221
REMARK  100  A    between atoms: _220  and  _223
REMARK  101  A    between atoms: _223  and  _224
REMARK  102  A    between atoms: _227  and  _229
REMARK  103  A    between atoms: _229  and  _230
REMARK  104  A    between atoms: _229  and  _232
REMARK  105  A    between atoms: _232  and  _233
REMARK  106  A    between atoms: _236  and  _238
REMARK  107  A    between atoms: _238  and  _239
REMARK  108  A    between atoms: _238  and  _241
REMARK  109  A    between atoms: _241  and  _242
REMARK  110  A    between atoms: _247  and  _249
REMARK  111  A    between atoms: _249  and  _250
REMARK  112  A    between atoms: _249  and  _252
REMARK  113  A    between atoms: _252  and  _253
REMARK  114  A    between atoms: _256  and  _258
REMARK  115  A    between atoms: _258  and  _259
REMARK  116  A    between atoms: _258  and  _261
REMARK  117  A    between atoms: _261  and  _262
REMARK  118  A    between atoms: _267  and  _269
REMARK  119  A    between atoms: _269  and  _270
REMARK  120  A    between atoms: _269  and  _272
REMARK  121  A    between atoms: _272  and  _273
REMARK  122  A    between atoms: _277  and  _278
REMARK  123  A    between atoms: _283  and  _285
REMARK  124  A    between atoms: _285  and  _286
REMARK  125  A    between atoms: _285  and  _288
REMARK  126  A    between atoms: _292  and  _293
REMARK  127  A    between atoms: _298  and  _300
REMARK  128  A    between atoms: _300  and  _301
REMARK  129  A    between atoms: _300  and  _303
REMARK  130  A    between atoms: _303  and  _304
REMARK  131  A    between atoms: _311  and  _312
REMARK  132  A    between atoms: _317  and  _319
REMARK  133  A    between atoms: _319  and  _320
REMARK  134  A    between atoms: _319  and  _322
REMARK  135  A    between atoms: _322  and  _323
REMARK  136  A    between atoms: _325  and  _327
REMARK  137  A    between atoms: _327  and  _328
REMARK  138  A    between atoms: _327  and  _330
REMARK  139  A    between atoms: _330  and  _331
REMARK  140  A    between atoms: _341  and  _343
REMARK  141  A    between atoms: _343  and  _344
REMARK  142  A    between atoms: _343  and  _346
REMARK  143  A    between atoms: _346  and  _347
REMARK  144  A    between atoms: _351  and  ZN_361
REMARK  145  A    between atoms: _352  and  _354
REMARK  146  A    between atoms: _354  and  _355
REMARK  147  A    between atoms: _354  and  _357
REMARK  148  A    between atoms: _357  and  _358
REMARK                            x       y       z     vdW  Elec       q    Type
REMARK                         _______ _______ _______ _____ _____    ______ ____
ROOT
ATOM      1  O   HOH     1     -31.679   2.227  43.646  0.00  0.00    +0.000 OA
ENDROOT
TORSDOF 0
REMARK  Name = ../refined-set-2016/4fai/4fai_pocket.pdb
REMARK  148 active torsions:
REMARK  status: ('A' for Active; 'I' for Inactive)
REMARK    1  A    between atoms: _1  and  _3
REMARK    2  A    between atoms: _3  and  _4
REMARK    3  A    between atoms: _3  and  _6
REMARK    4  A    between atoms: _6  and  _7
REMARK    5  A    between atoms: _12  and  _14
REMARK    6  A    between atoms: _14  and  _15
REMARK    7  A    between atoms: _14  and  _17
REMARK    8  A    between atoms: _17  and  _18
REMARK    9  A    between atoms: _18  and  _19
REMARK   10  A    between atoms: _19  and  _20
REMARK   11  A    between atoms: _20  and  _21
REMARK   12  A    between atoms: _25  and  _27
REMARK   13  A    between atoms: _27  and  _28
REMARK   14  A    between atoms: _27  and  _30
REMARK   15  A    between atoms: _30  and  _31
REMARK   16  A    between atoms: _37  and  _39
REMARK   17  A    between atoms: _39  and  _40
REMARK   18  A    between atoms: _39  and  _42
REMARK   19  A    between atoms: _42  and  _43
REMARK   20  A    between atoms: _46  and  _48
REMARK   21  A    between atoms: _48  and  _49
REMARK   22  A    between atoms: _48  and  _51
REMARK   23  A    between atoms: _51  and  _52
REMARK   24  A    between atoms: _52  and  _54
REMARK   25  A    between atoms: _54  and  ZN_361
REMARK   26  A    between atoms: _55  and  _57
REMARK   27  A    between atoms: _57  and  _58
REMARK   28  A    between atoms: _57  and  _60
REMARK   29  A    between atoms: _60  and  _61
REMARK   30  A    between atoms: _63  and  _65
REMARK   31  A    between atoms: _65  and  _66
REMARK   32  A    between atoms: _65  and  _68
REMARK   33  A    between atoms: _68  and  _69
REMARK   34  A    between atoms: _69  and  _70
REMARK   35  A    between atoms: _73  and  _75
REMARK   36  A    between atoms: _75  and  _76
REMARK   37  A    between atoms: _75  and  _78
REMARK   38  A    between atoms: _78  and  _79
REMARK   39  A    between atoms: _79  and  _80
REMARK   40  A    between atoms: _80  and  _81
REMARK   41  A    between atoms: _81  and  ZN_361
REMARK   42  A    between atoms: _83  and  _85
REMARK   43  A    between atoms: _85  and  _86
REMARK   44  A    between atoms: _89  and  _91
REMARK   45  A    between atoms: _91  and  _92
REMARK   46  A    between atoms: _91  and  _94
REMARK   47  A    between atoms: _94  and  _95
REMARK   48  A    between atoms: _105  and  _107
REMARK   49  A    between atoms: _107  and  _108
REMARK   50  A    between atoms: _107  and  _110
REMARK   51  A    between atoms: _110  and  _111
REMARK   52  A    between atoms: _113  and  _115
REMARK   53  A    between atoms: _115  and  _116
REMARK   54  A    between atoms: _115  and  _118
REMARK   55  A    between atoms: _118  and  _119
REMARK   56  A    between atoms: _122  and  _124
REMARK   57  A    between atoms: _124  and  _125
REMARK   58  A    between atoms: _124  and  _127
REMARK   59  A    between atoms: _127  and  _128
REMARK   60  A    between atoms: _131  and  _133
REMARK   61  A    between atoms: _133  and  _134
REMARK   62  A    between atoms: _133  and  _136
REMARK   63  A    between atoms: _136  and  _137
REMARK   64  A    between atoms: _140  and  _142
REMARK   65  A    between atoms: _142  and  _143
REMARK   66  A    between atoms: _142  and  _145
REMARK   67  A    between atoms: _145  and  _146
REMARK   68  A    between atoms: _149  and  _151
REMARK   69  A    between atoms: _151  and  _152
REMARK   70  A    between atoms: _151  and  _154
REMARK   71  A    between atoms: _154  and  _155
REMARK   72  A    between atoms: _158  and  _160
REMARK   73  A    between atoms: _160  and  _161
REMARK   74  A    between atoms: _160  and  _163
REMARK   75  A    between atoms: _163  and  _164
REMARK   76  A    between atoms: _170  and  _172
REMARK   77  A    between atoms: _172  and  _173
REMARK   78  A    between atoms: _172  and  _175
REMARK   79  A    between atoms: _175  and  _176
REMARK   80  A    between atoms: _176  and  _177
REMARK   81  A    between atoms: _179  and  _181
REMARK   82  A    between atoms: _181  and  _182
REMARK   83  A    between atoms: _181  and  _184
REMARK   84  A    between atoms: _184  and  _185
REMARK   85  A    between atoms: _187  and  _189
REMARK   86  A    between atoms: _189  and  _190
REMARK   87  A    between atoms: _189  and  _192
REMARK   88  A    between atoms: _192  and  _193
REMARK   89  A    between atoms: _199  and  _201
REMARK   90  A    between atoms: _201  and  _202
REMARK   91  A    between atoms: _201  and  _204
REMARK   92  A    between atoms: _204  and  _205
REMARK   93  A    between atoms: _208  and  _210
REMARK   94  A    between atoms: _210  and  _211
REMARK   95  A    between atoms: _210  and  _213
REMARK   96  A    between atoms: _213  and  _214
REMARK   97  A    between atoms: _214  and  _215
REMARK   98  A    between atoms: _218  and  _220
REMARK   99  A    between atoms: _220  and  _221
REMARK  100  A    between atoms: _220  and  _223
REMARK  101  A    between atoms: _223  and  _224
REMARK  102  A    between atoms: _227  and  _229
REMARK  103  A    between atoms: _229  and  _230
REMARK  104  A    between atoms: _229  and  _232
REMARK  105  A    between atoms: _232  and  _233
REMARK  106  A    between atoms: _236  and  _238
REMARK  107  A    between atoms: _238  and  _239
REMARK  108  A    between atoms: _238  and  _241
REMARK  109  A    between atoms: _241  and  _242
REMARK  110  A    between atoms: _247  and  _249
REMARK  111  A    between atoms: _249  and  _250
REMARK  112  A    between atoms: _249  and  _252
REMARK  113  A    between atoms: _252  and  _253
REMARK  114  A    between atoms: _256  and  _258
REMARK  115  A    between atoms: _258  and  _259
REMARK  116  A    between atoms: _258  and  _261
REMARK  117  A    between atoms: _261  and  _262
REMARK  118  A    between atoms: _267  and  _269
REMARK  119  A    between atoms: _269  and  _270
REMARK  120  A    between atoms: _269  and  _272
REMARK  121  A    between atoms: _272  and  _273
REMARK  122  A    between atoms: _277  and  _278
REMARK  123  A    between atoms: _283  and  _285
REMARK  124  A    between atoms: _285  and  _286
REMARK  125  A    between atoms: _285  and  _288
REMARK  126  A    between atoms: _292  and  _293
REMARK  127  A    between atoms: _298  and  _300
REMARK  128  A    between atoms: _300  and  _301
REMARK  129  A    between atoms: _300  and  _303
REMARK  130  A    between atoms: _303  and  _304
REMARK  131  A    between atoms: _311  and  _312
REMARK  132  A    between atoms: _317  and  _319
REMARK  133  A    between atoms: _319  and  _320
REMARK  134  A    between atoms: _319  and  _322
REMARK  135  A    between atoms: _322  and  _323
REMARK  136  A    between atoms: _325  and  _327
REMARK  137  A    between atoms: _327  and  _328
REMARK  138  A    between atoms: _327  and  _330
REMARK  139  A    between atoms: _330  and  _331
REMARK  140  A    between atoms: _341  and  _343
REMARK  141  A    between atoms: _343  and  _344
REMARK  142  A    between atoms: _343  and  _346
REMARK  143  A    between atoms: _346  and  _347
REMARK  144  A    between atoms: _351  and  ZN_361
REMARK  145  A    between atoms: _352  and  _354
REMARK  146  A    between atoms: _354  and  _355
REMARK  147  A    between atoms: _354  and  _357
REMARK  148  A    between atoms: _357  and  _358
REMARK                            x       y       z     vdW  Elec       q    Type
REMARK                         _______ _______ _______ _____ _____    ______ ____
ROOT
ATOM      1  O   HOH     1     -29.405  -4.904  50.775  0.00  0.00    +0.000 OA
ENDROOT
TORSDOF 0
REMARK  Name = ../refined-set-2016/4fai/4fai_pocket.pdb
REMARK  148 active torsions:
REMARK  status: ('A' for Active; 'I' for Inactive)
REMARK    1  A    between atoms: _1  and  _3
REMARK    2  A    between atoms: _3  and  _4
REMARK    3  A    between atoms: _3  and  _6
REMARK    4  A    between atoms: _6  and  _7
REMARK    5  A    between atoms: _12  and  _14
REMARK    6  A    between atoms: _14  and  _15
REMARK    7  A    between atoms: _14  and  _17
REMARK    8  A    between atoms: _17  and  _18
REMARK    9  A    between atoms: _18  and  _19
REMARK   10  A    between atoms: _19  and  _20
REMARK   11  A    between atoms: _20  and  _21
REMARK   12  A    between atoms: _25  and  _27
REMARK   13  A    between atoms: _27  and  _28
REMARK   14  A    between atoms: _27  and  _30
REMARK   15  A    between atoms: _30  and  _31
REMARK   16  A    between atoms: _37  and  _39
REMARK   17  A    between atoms: _39  and  _40
REMARK   18  A    between atoms: _39  and  _42
REMARK   19  A    between atoms: _42  and  _43
REMARK   20  A    between atoms: _46  and  _48
REMARK   21  A    between atoms: _48  and  _49
REMARK   22  A    between atoms: _48  and  _51
REMARK   23  A    between atoms: _51  and  _52
REMARK   24  A    between atoms: _52  and  _54
REMARK   25  A    between atoms: _54  and  ZN_361
REMARK   26  A    between atoms: _55  and  _57
REMARK   27  A    between atoms: _57  and  _58
REMARK   28  A    between atoms: _57  and  _60
REMARK   29  A    between atoms: _60  and  _61
REMARK   30  A    between atoms: _63  and  _65
REMARK   31  A    between atoms: _65  and  _66
REMARK   32  A    between atoms: _65  and  _68
REMARK   33  A    between atoms: _68  and  _69
REMARK   34  A    between atoms: _69  and  _70
REMARK   35  A    between atoms: _73  and  _75
REMARK   36  A    between atoms: _75  and  _76
REMARK   37  A    between atoms: _75  and  _78
REMARK   38  A    between atoms: _78  and  _79
REMARK   39  A    between atoms: _79  and  _80
REMARK   40  A    between atoms: _80  and  _81
REMARK   41  A    between atoms: _81  and  ZN_361
REMARK   42  A    between atoms: _83  and  _85
REMARK   43  A    between atoms: _85  and  _86
REMARK   44  A    between atoms: _89  and  _91
REMARK   45  A    between atoms: _91  and  _92
REMARK   46  A    between atoms: _91  and  _94
REMARK   47  A    between atoms: _94  and  _95
REMARK   48  A    between atoms: _105  and  _107
REMARK   49  A    between atoms: _107  and  _108
REMARK   50  A    between atoms: _107  and  _110
REMARK   51  A    between atoms: _110  and  _111
REMARK   52  A    between atoms: _113  and  _115
REMARK   53  A    between atoms: _115  and  _116
REMARK   54  A    between atoms: _115  and  _118
REMARK   55  A    between atoms: _118  and  _119
REMARK   56  A    between atoms: _122  and  _124
REMARK   57  A    between atoms: _124  and  _125
REMARK   58  A    between atoms: _124  and  _127
REMARK   59  A    between atoms: _127  and  _128
REMARK   60  A    between atoms: _131  and  _133
REMARK   61  A    between atoms: _133  and  _134
REMARK   62  A    between atoms: _133  and  _136
REMARK   63  A    between atoms: _136  and  _137
REMARK   64  A    between atoms: _140  and  _142
REMARK   65  A    between atoms: _142  and  _143
REMARK   66  A    between atoms: _142  and  _145
REMARK   67  A    between atoms: _145  and  _146
REMARK   68  A    between atoms: _149  and  _151
REMARK   69  A    between atoms: _151  and  _152
REMARK   70  A    between atoms: _151  and  _154
REMARK   71  A    between atoms: _154  and  _155
REMARK   72  A    between atoms: _158  and  _160
REMARK   73  A    between atoms: _160  and  _161
REMARK   74  A    between atoms: _160  and  _163
REMARK   75  A    between atoms: _163  and  _164
REMARK   76  A    between atoms: _170  and  _172
REMARK   77  A    between atoms: _172  and  _173
REMARK   78  A    between atoms: _172  and  _175
REMARK   79  A    between atoms: _175  and  _176
REMARK   80  A    between atoms: _176  and  _177
REMARK   81  A    between atoms: _179  and  _181
REMARK   82  A    between atoms: _181  and  _182
REMARK   83  A    between atoms: _181  and  _184
REMARK   84  A    between atoms: _184  and  _185
REMARK   85  A    between atoms: _187  and  _189
REMARK   86  A    between atoms: _189  and  _190
REMARK   87  A    between atoms: _189  and  _192
REMARK   88  A    between atoms: _192  and  _193
REMARK   89  A    between atoms: _199  and  _201
REMARK   90  A    between atoms: _201  and  _202
REMARK   91  A    between atoms: _201  and  _204
REMARK   92  A    between atoms: _204  and  _205
REMARK   93  A    between atoms: _208  and  _210
REMARK   94  A    between atoms: _210  and  _211
REMARK   95  A    between atoms: _210  and  _213
REMARK   96  A    between atoms: _213  and  _214
REMARK   97  A    between atoms: _214  and  _215
REMARK   98  A    between atoms: _218  and  _220
REMARK   99  A    between atoms: _220  and  _221
REMARK  100  A    between atoms: _220  and  _223
REMARK  101  A    between atoms: _223  and  _224
REMARK  102  A    between atoms: _227  and  _229
REMARK  103  A    between atoms: _229  and  _230
REMARK  104  A    between atoms: _229  and  _232
REMARK  105  A    between atoms: _232  and  _233
REMARK  106  A    between atoms: _236  and  _238
REMARK  107  A    between atoms: _238  and  _239
REMARK  108  A    between atoms: _238  and  _241
REMARK  109  A    between atoms: _241  and  _242
REMARK  110  A    between atoms: _247  and  _249
REMARK  111  A    between atoms: _249  and  _250
REMARK  112  A    between atoms: _249  and  _252
REMARK  113  A    between atoms: _252  and  _253
REMARK  114  A    between atoms: _256  and  _258
REMARK  115  A    between atoms: _258  and  _259
REMARK  116  A    between atoms: _258  and  _261
REMARK  117  A    between atoms: _261  and  _262
REMARK  118  A    between atoms: _267  and  _269
REMARK  119  A    between atoms: _269  and  _270
REMARK  120  A    between atoms: _269  and  _272
REMARK  121  A    between atoms: _272  and  _273
REMARK  122  A    between atoms: _277  and  _278
REMARK  123  A    between atoms: _283  and  _285
REMARK  124  A    between atoms: _285  and  _286
REMARK  125  A    between atoms: _285  and  _288
REMARK  126  A    between atoms: _292  and  _293
REMARK  127  A    between atoms: _298  and  _300
REMARK  128  A    between atoms: _300  and  _301
REMARK  129  A    between atoms: _300  and  _303
REMARK  130  A    between atoms: _303  and  _304
REMARK  131  A    between atoms: _311  and  _312
REMARK  132  A    between atoms: _317  and  _319
REMARK  133  A    between atoms: _319  and  _320
REMARK  134  A    between atoms: _319  and  _322
REMARK  135  A    between atoms: _322  and  _323
REMARK  136  A    between atoms: _325  and  _327
REMARK  137  A    between atoms: _327  and  _328
REMARK  138  A    between atoms: _327  and  _330
REMARK  139  A    between atoms: _330  and  _331
REMARK  140  A    between atoms: _341  and  _343
REMARK  141  A    between atoms: _343  and  _344
REMARK  142  A    between atoms: _343  and  _346
REMARK  143  A    between atoms: _346  and  _347
REMARK  144  A    between atoms: _351  and  ZN_361
REMARK  145  A    between atoms: _352  and  _354
REMARK  146  A    between atoms: _354  and  _355
REMARK  147  A    between atoms: _354  and  _357
REMARK  148  A    between atoms: _357  and  _358
REMARK                            x       y       z     vdW  Elec       q    Type
REMARK                         _______ _______ _______ _____ _____    ______ ____
ROOT
ATOM      1  O   HOH     1     -34.577   2.257  45.334  0.00  0.00    +0.000 OA
ENDROOT
TORSDOF 0
REMARK  Name = ../refined-set-2016/4fai/4fai_pocket.pdb
REMARK  148 active torsions:
REMARK  status: ('A' for Active; 'I' for Inactive)
REMARK    1  A    between atoms: _1  and  _3
REMARK    2  A    between atoms: _3  and  _4
REMARK    3  A    between atoms: _3  and  _6
REMARK    4  A    between atoms: _6  and  _7
REMARK    5  A    between atoms: _12  and  _14
REMARK    6  A    between atoms: _14  and  _15
REMARK    7  A    between atoms: _14  and  _17
REMARK    8  A    between atoms: _17  and  _18
REMARK    9  A    between atoms: _18  and  _19
REMARK   10  A    between atoms: _19  and  _20
REMARK   11  A    between atoms: _20  and  _21
REMARK   12  A    between atoms: _25  and  _27
REMARK   13  A    between atoms: _27  and  _28
REMARK   14  A    between atoms: _27  and  _30
REMARK   15  A    between atoms: _30  and  _31
REMARK   16  A    between atoms: _37  and  _39
REMARK   17  A    between atoms: _39  and  _40
REMARK   18  A    between atoms: _39  and  _42
REMARK   19  A    between atoms: _42  and  _43
REMARK   20  A    between atoms: _46  and  _48
REMARK   21  A    between atoms: _48  and  _49
REMARK   22  A    between atoms: _48  and  _51
REMARK   23  A    between atoms: _51  and  _52
REMARK   24  A    between atoms: _52  and  _54
REMARK   25  A    between atoms: _54  and  ZN_361
REMARK   26  A    between atoms: _55  and  _57
REMARK   27  A    between atoms: _57  and  _58
REMARK   28  A    between atoms: _57  and  _60
REMARK   29  A    between atoms: _60  and  _61
REMARK   30  A    between atoms: _63  and  _65
REMARK   31  A    between atoms: _65  and  _66
REMARK   32  A    between atoms: _65  and  _68
REMARK   33  A    between atoms: _68  and  _69
REMARK   34  A    between atoms: _69  and  _70
REMARK   35  A    between atoms: _73  and  _75
REMARK   36  A    between atoms: _75  and  _76
REMARK   37  A    between atoms: _75  and  _78
REMARK   38  A    between atoms: _78  and  _79
REMARK   39  A    between atoms: _79  and  _80
REMARK   40  A    between atoms: _80  and  _81
REMARK   41  A    between atoms: _81  and  ZN_361
REMARK   42  A    between atoms: _83  and  _85
REMARK   43  A    between atoms: _85  and  _86
REMARK   44  A    between atoms: _89  and  _91
REMARK   45  A    between atoms: _91  and  _92
REMARK   46  A    between atoms: _91  and  _94
REMARK   47  A    between atoms: _94  and  _95
REMARK   48  A    between atoms: _105  and  _107
REMARK   49  A    between atoms: _107  and  _108
REMARK   50  A    between atoms: _107  and  _110
REMARK   51  A    between atoms: _110  and  _111
REMARK   52  A    between atoms: _113  and  _115
REMARK   53  A    between atoms: _115  and  _116
REMARK   54  A    between atoms: _115  and  _118
REMARK   55  A    between atoms: _118  and  _119
REMARK   56  A    between atoms: _122  and  _124
REMARK   57  A    between atoms: _124  and  _125
REMARK   58  A    between atoms: _124  and  _127
REMARK   59  A    between atoms: _127  and  _128
REMARK   60  A    between atoms: _131  and  _133
REMARK   61  A    between atoms: _133  and  _134
REMARK   62  A    between atoms: _133  and  _136
REMARK   63  A    between atoms: _136  and  _137
REMARK   64  A    between atoms: _140  and  _142
REMARK   65  A    between atoms: _142  and  _143
REMARK   66  A    between atoms: _142  and  _145
REMARK   67  A    between atoms: _145  and  _146
REMARK   68  A    between atoms: _149  and  _151
REMARK   69  A    between atoms: _151  and  _152
REMARK   70  A    between atoms: _151  and  _154
REMARK   71  A    between atoms: _154  and  _155
REMARK   72  A    between atoms: _158  and  _160
REMARK   73  A    between atoms: _160  and  _161
REMARK   74  A    between atoms: _160  and  _163
REMARK   75  A    between atoms: _163  and  _164
REMARK   76  A    between atoms: _170  and  _172
REMARK   77  A    between atoms: _172  and  _173
REMARK   78  A    between atoms: _172  and  _175
REMARK   79  A    between atoms: _175  and  _176
REMARK   80  A    between atoms: _176  and  _177
REMARK   81  A    between atoms: _179  and  _181
REMARK   82  A    between atoms: _181  and  _182
REMARK   83  A    between atoms: _181  and  _184
REMARK   84  A    between atoms: _184  and  _185
REMARK   85  A    between atoms: _187  and  _189
REMARK   86  A    between atoms: _189  and  _190
REMARK   87  A    between atoms: _189  and  _192
REMARK   88  A    between atoms: _192  and  _193
REMARK   89  A    between atoms: _199  and  _201
REMARK   90  A    between atoms: _201  and  _202
REMARK   91  A    between atoms: _201  and  _204
REMARK   92  A    between atoms: _204  and  _205
REMARK   93  A    between atoms: _208  and  _210
REMARK   94  A    between atoms: _210  and  _211
REMARK   95  A    between atoms: _210  and  _213
REMARK   96  A    between atoms: _213  and  _214
REMARK   97  A    between atoms: _214  and  _215
REMARK   98  A    between atoms: _218  and  _220
REMARK   99  A    between atoms: _220  and  _221
REMARK  100  A    between atoms: _220  and  _223
REMARK  101  A    between atoms: _223  and  _224
REMARK  102  A    between atoms: _227  and  _229
REMARK  103  A    between atoms: _229  and  _230
REMARK  104  A    between atoms: _229  and  _232
REMARK  105  A    between atoms: _232  and  _233
REMARK  106  A    between atoms: _236  and  _238
REMARK  107  A    between atoms: _238  and  _239
REMARK  108  A    between atoms: _238  and  _241
REMARK  109  A    between atoms: _241  and  _242
REMARK  110  A    between atoms: _247  and  _249
REMARK  111  A    between atoms: _249  and  _250
REMARK  112  A    between atoms: _249  and  _252
REMARK  113  A    between atoms: _252  and  _253
REMARK  114  A    between atoms: _256  and  _258
REMARK  115  A    between atoms: _258  and  _259
REMARK  116  A    between atoms: _258  and  _261
REMARK  117  A    between atoms: _261  and  _262
REMARK  118  A    between atoms: _267  and  _269
REMARK  119  A    between atoms: _269  and  _270
REMARK  120  A    between atoms: _269  and  _272
REMARK  121  A    between atoms: _272  and  _273
REMARK  122  A    between atoms: _277  and  _278
REMARK  123  A    between atoms: _283  and  _285
REMARK  124  A    between atoms: _285  and  _286
REMARK  125  A    between atoms: _285  and  _288
REMARK  126  A    between atoms: _292  and  _293
REMARK  127  A    between atoms: _298  and  _300
REMARK  128  A    between atoms: _300  and  _301
REMARK  129  A    between atoms: _300  and  _303
REMARK  130  A    between atoms: _303  and  _304
REMARK  131  A    between atoms: _311  and  _312
REMARK  132  A    between atoms: _317  and  _319
REMARK  133  A    between atoms: _319  and  _320
REMARK  134  A    between atoms: _319  and  _322
REMARK  135  A    between atoms: _322  and  _323
REMARK  136  A    between atoms: _325  and  _327
REMARK  137  A    between atoms: _327  and  _328
REMARK  138  A    between atoms: _327  and  _330
REMARK  139  A    between atoms: _330  and  _331
REMARK  140  A    between atoms: _341  and  _343
REMARK  141  A    between atoms: _343  and  _344
REMARK  142  A    between atoms: _343  and  _346
REMARK  143  A    between atoms: _346  and  _347
REMARK  144  A    between atoms: _351  and  ZN_361
REMARK  145  A    between atoms: _352  and  _354
REMARK  146  A    between atoms: _354  and  _355
REMARK  147  A    between atoms: _354  and  _357
REMARK  148  A    between atoms: _357  and  _358
REMARK                            x       y       z     vdW  Elec       q    Type
REMARK                         _______ _______ _______ _____ _____    ______ ____
ROOT
ATOM      1  O   HOH     1     -24.044  -4.824  34.887  0.00  0.00    +0.000 OA
ENDROOT
TORSDOF 0
REMARK  Name = ../refined-set-2016/4fai/4fai_pocket.pdb
REMARK  148 active torsions:
REMARK  status: ('A' for Active; 'I' for Inactive)
REMARK    1  A    between atoms: _1  and  _3
REMARK    2  A    between atoms: _3  and  _4
REMARK    3  A    between atoms: _3  and  _6
REMARK    4  A    between atoms: _6  and  _7
REMARK    5  A    between atoms: _12  and  _14
REMARK    6  A    between atoms: _14  and  _15
REMARK    7  A    between atoms: _14  and  _17
REMARK    8  A    between atoms: _17  and  _18
REMARK    9  A    between atoms: _18  and  _19
REMARK   10  A    between atoms: _19  and  _20
REMARK   11  A    between atoms: _20  and  _21
REMARK   12  A    between atoms: _25  and  _27
REMARK   13  A    between atoms: _27  and  _28
REMARK   14  A    between atoms: _27  and  _30
REMARK   15  A    between atoms: _30  and  _31
REMARK   16  A    between atoms: _37  and  _39
REMARK   17  A    between atoms: _39  and  _40
REMARK   18  A    between atoms: _39  and  _42
REMARK   19  A    between atoms: _42  and  _43
REMARK   20  A    between atoms: _46  and  _48
REMARK   21  A    between atoms: _48  and  _49
REMARK   22  A    between atoms: _48  and  _51
REMARK   23  A    between atoms: _51  and  _52
REMARK   24  A    between atoms: _52  and  _54
REMARK   25  A    between atoms: _54  and  ZN_361
REMARK   26  A    between atoms: _55  and  _57
REMARK   27  A    between atoms: _57  and  _58
REMARK   28  A    between atoms: _57  and  _60
REMARK   29  A    between atoms: _60  and  _61
REMARK   30  A    between atoms: _63  and  _65
REMARK   31  A    between atoms: _65  and  _66
REMARK   32  A    between atoms: _65  and  _68
REMARK   33  A    between atoms: _68  and  _69
REMARK   34  A    between atoms: _69  and  _70
REMARK   35  A    between atoms: _73  and  _75
REMARK   36  A    between atoms: _75  and  _76
REMARK   37  A    between atoms: _75  and  _78
REMARK   38  A    between atoms: _78  and  _79
REMARK   39  A    between atoms: _79  and  _80
REMARK   40  A    between atoms: _80  and  _81
REMARK   41  A    between atoms: _81  and  ZN_361
REMARK   42  A    between atoms: _83  and  _85
REMARK   43  A    between atoms: _85  and  _86
REMARK   44  A    between atoms: _89  and  _91
REMARK   45  A    between atoms: _91  and  _92
REMARK   46  A    between atoms: _91  and  _94
REMARK   47  A    between atoms: _94  and  _95
REMARK   48  A    between atoms: _105  and  _107
REMARK   49  A    between atoms: _107  and  _108
REMARK   50  A    between atoms: _107  and  _110
REMARK   51  A    between atoms: _110  and  _111
REMARK   52  A    between atoms: _113  and  _115
REMARK   53  A    between atoms: _115  and  _116
REMARK   54  A    between atoms: _115  and  _118
REMARK   55  A    between atoms: _118  and  _119
REMARK   56  A    between atoms: _122  and  _124
REMARK   57  A    between atoms: _124  and  _125
REMARK   58  A    between atoms: _124  and  _127
REMARK   59  A    between atoms: _127  and  _128
REMARK   60  A    between atoms: _131  and  _133
REMARK   61  A    between atoms: _133  and  _134
REMARK   62  A    between atoms: _133  and  _136
REMARK   63  A    between atoms: _136  and  _137
REMARK   64  A    between atoms: _140  and  _142
REMARK   65  A    between atoms: _142  and  _143
REMARK   66  A    between atoms: _142  and  _145
REMARK   67  A    between atoms: _145  and  _146
REMARK   68  A    between atoms: _149  and  _151
REMARK   69  A    between atoms: _151  and  _152
REMARK   70  A    between atoms: _151  and  _154
REMARK   71  A    between atoms: _154  and  _155
REMARK   72  A    between atoms: _158  and  _160
REMARK   73  A    between atoms: _160  and  _161
REMARK   74  A    between atoms: _160  and  _163
REMARK   75  A    between atoms: _163  and  _164
REMARK   76  A    between atoms: _170  and  _172
REMARK   77  A    between atoms: _172  and  _173
REMARK   78  A    between atoms: _172  and  _175
REMARK   79  A    between atoms: _175  and  _176
REMARK   80  A    between atoms: _176  and  _177
REMARK   81  A    between atoms: _179  and  _181
REMARK   82  A    between atoms: _181  and  _182
REMARK   83  A    between atoms: _181  and  _184
REMARK   84  A    between atoms: _184  and  _185
REMARK   85  A    between atoms: _187  and  _189
REMARK   86  A    between atoms: _189  and  _190
REMARK   87  A    between atoms: _189  and  _192
REMARK   88  A    between atoms: _192  and  _193
REMARK   89  A    between atoms: _199  and  _201
REMARK   90  A    between atoms: _201  and  _202
REMARK   91  A    between atoms: _201  and  _204
REMARK   92  A    between atoms: _204  and  _205
REMARK   93  A    between atoms: _208  and  _210
REMARK   94  A    between atoms: _210  and  _211
REMARK   95  A    between atoms: _210  and  _213
REMARK   96  A    between atoms: _213  and  _214
REMARK   97  A    between atoms: _214  and  _215
REMARK   98  A    between atoms: _218  and  _220
REMARK   99  A    between atoms: _220  and  _221
REMARK  100  A    between atoms: _220  and  _223
REMARK  101  A    between atoms: _223  and  _224
REMARK  102  A    between atoms: _227  and  _229
REMARK  103  A    between atoms: _229  and  _230
REMARK  104  A    between atoms: _229  and  _232
REMARK  105  A    between atoms: _232  and  _233
REMARK  106  A    between atoms: _236  and  _238
REMARK  107  A    between atoms: _238  and  _239
REMARK  108  A    between atoms: _238  and  _241
REMARK  109  A    between atoms: _241  and  _242
REMARK  110  A    between atoms: _247  and  _249
REMARK  111  A    between atoms: _249  and  _250
REMARK  112  A    between atoms: _249  and  _252
REMARK  113  A    between atoms: _252  and  _253
REMARK  114  A    between atoms: _256  and  _258
REMARK  115  A    between atoms: _258  and  _259
REMARK  116  A    between atoms: _258  and  _261
REMARK  117  A    between atoms: _261  and  _262
REMARK  118  A    between atoms: _267  and  _269
REMARK  119  A    between atoms: _269  and  _270
REMARK  120  A    between atoms: _269  and  _272
REMARK  121  A    between atoms: _272  and  _273
REMARK  122  A    between atoms: _277  and  _278
REMARK  123  A    between atoms: _283  and  _285
REMARK  124  A    between atoms: _285  and  _286
REMARK  125  A    between atoms: _285  and  _288
REMARK  126  A    between atoms: _292  and  _293
REMARK  127  A    between atoms: _298  and  _300
REMARK  128  A    between atoms: _300  and  _301
REMARK  129  A    between atoms: _300  and  _303
REMARK  130  A    between atoms: _303  and  _304
REMARK  131  A    between atoms: _311  and  _312
REMARK  132  A    between atoms: _317  and  _319
REMARK  133  A    between atoms: _319  and  _320
REMARK  134  A    between atoms: _319  and  _322
REMARK  135  A    between atoms: _322  and  _323
REMARK  136  A    between atoms: _325  and  _327
REMARK  137  A    between atoms: _327  and  _328
REMARK  138  A    between atoms: _327  and  _330
REMARK  139  A    between atoms: _330  and  _331
REMARK  140  A    between atoms: _341  and  _343
REMARK  141  A    between atoms: _343  and  _344
REMARK  142  A    between atoms: _343  and  _346
REMARK  143  A    between atoms: _346  and  _347
REMARK  144  A    between atoms: _351  and  ZN_361
REMARK  145  A    between atoms: _352  and  _354
REMARK  146  A    between atoms: _354  and  _355
REMARK  147  A    between atoms: _354  and  _357
REMARK  148  A    between atoms: _357  and  _358
REMARK                            x       y       z     vdW  Elec       q    Type
REMARK                         _______ _______ _______ _____ _____    ______ ____
ROOT
ATOM      1  O   HOH     1     -36.803  -4.418  49.743  0.00  0.00    +0.000 OA
ENDROOT
TORSDOF 0
REMARK  Name = ../refined-set-2016/4fai/4fai_pocket.pdb
REMARK  148 active torsions:
REMARK  status: ('A' for Active; 'I' for Inactive)
REMARK    1  A    between atoms: _1  and  _3
REMARK    2  A    between atoms: _3  and  _4
REMARK    3  A    between atoms: _3  and  _6
REMARK    4  A    between atoms: _6  and  _7
REMARK    5  A    between atoms: _12  and  _14
REMARK    6  A    between atoms: _14  and  _15
REMARK    7  A    between atoms: _14  and  _17
REMARK    8  A    between atoms: _17  and  _18
REMARK    9  A    between atoms: _18  and  _19
REMARK   10  A    between atoms: _19  and  _20
REMARK   11  A    between atoms: _20  and  _21
REMARK   12  A    between atoms: _25  and  _27
REMARK   13  A    between atoms: _27  and  _28
REMARK   14  A    between atoms: _27  and  _30
REMARK   15  A    between atoms: _30  and  _31
REMARK   16  A    between atoms: _37  and  _39
REMARK   17  A    between atoms: _39  and  _40
REMARK   18  A    between atoms: _39  and  _42
REMARK   19  A    between atoms: _42  and  _43
REMARK   20  A    between atoms: _46  and  _48
REMARK   21  A    between atoms: _48  and  _49
REMARK   22  A    between atoms: _48  and  _51
REMARK   23  A    between atoms: _51  and  _52
REMARK   24  A    between atoms: _52  and  _54
REMARK   25  A    between atoms: _54  and  ZN_361
REMARK   26  A    between atoms: _55  and  _57
REMARK   27  A    between atoms: _57  and  _58
REMARK   28  A    between atoms: _57  and  _60
REMARK   29  A    between atoms: _60  and  _61
REMARK   30  A    between atoms: _63  and  _65
REMARK   31  A    between atoms: _65  and  _66
REMARK   32  A    between atoms: _65  and  _68
REMARK   33  A    between atoms: _68  and  _69
REMARK   34  A    between atoms: _69  and  _70
REMARK   35  A    between atoms: _73  and  _75
REMARK   36  A    between atoms: _75  and  _76
REMARK   37  A    between atoms: _75  and  _78
REMARK   38  A    between atoms: _78  and  _79
REMARK   39  A    between atoms: _79  and  _80
REMARK   40  A    between atoms: _80  and  _81
REMARK   41  A    between atoms: _81  and  ZN_361
REMARK   42  A    between atoms: _83  and  _85
REMARK   43  A    between atoms: _85  and  _86
REMARK   44  A    between atoms: _89  and  _91
REMARK   45  A    between atoms: _91  and  _92
REMARK   46  A    between atoms: _91  and  _94
REMARK   47  A    between atoms: _94  and  _95
REMARK   48  A    between atoms: _105  and  _107
REMARK   49  A    between atoms: _107  and  _108
REMARK   50  A    between atoms: _107  and  _110
REMARK   51  A    between atoms: _110  and  _111
REMARK   52  A    between atoms: _113  and  _115
REMARK   53  A    between atoms: _115  and  _116
REMARK   54  A    between atoms: _115  and  _118
REMARK   55  A    between atoms: _118  and  _119
REMARK   56  A    between atoms: _122  and  _124
REMARK   57  A    between atoms: _124  and  _125
REMARK   58  A    between atoms: _124  and  _127
REMARK   59  A    between atoms: _127  and  _128
REMARK   60  A    between atoms: _131  and  _133
REMARK   61  A    between atoms: _133  and  _134
REMARK   62  A    between atoms: _133  and  _136
REMARK   63  A    between atoms: _136  and  _137
REMARK   64  A    between atoms: _140  and  _142
REMARK   65  A    between atoms: _142  and  _143
REMARK   66  A    between atoms: _142  and  _145
REMARK   67  A    between atoms: _145  and  _146
REMARK   68  A    between atoms: _149  and  _151
REMARK   69  A    between atoms: _151  and  _152
REMARK   70  A    between atoms: _151  and  _154
REMARK   71  A    between atoms: _154  and  _155
REMARK   72  A    between atoms: _158  and  _160
REMARK   73  A    between atoms: _160  and  _161
REMARK   74  A    between atoms: _160  and  _163
REMARK   75  A    between atoms: _163  and  _164
REMARK   76  A    between atoms: _170  and  _172
REMARK   77  A    between atoms: _172  and  _173
REMARK   78  A    between atoms: _172  and  _175
REMARK   79  A    between atoms: _175  and  _176
REMARK   80  A    between atoms: _176  and  _177
REMARK   81  A    between atoms: _179  and  _181
REMARK   82  A    between atoms: _181  and  _182
REMARK   83  A    between atoms: _181  and  _184
REMARK   84  A    between atoms: _184  and  _185
REMARK   85  A    between atoms: _187  and  _189
REMARK   86  A    between atoms: _189  and  _190
REMARK   87  A    between atoms: _189  and  _192
REMARK   88  A    between atoms: _192  and  _193
REMARK   89  A    between atoms: _199  and  _201
REMARK   90  A    between atoms: _201  and  _202
REMARK   91  A    between atoms: _201  and  _204
REMARK   92  A    between atoms: _204  and  _205
REMARK   93  A    between atoms: _208  and  _210
REMARK   94  A    between atoms: _210  and  _211
REMARK   95  A    between atoms: _210  and  _213
REMARK   96  A    between atoms: _213  and  _214
REMARK   97  A    between atoms: _214  and  _215
REMARK   98  A    between atoms: _218  and  _220
REMARK   99  A    between atoms: _220  and  _221
REMARK  100  A    between atoms: _220  and  _223
REMARK  101  A    between atoms: _223  and  _224
REMARK  102  A    between atoms: _227  and  _229
REMARK  103  A    between atoms: _229  and  _230
REMARK  104  A    between atoms: _229  and  _232
REMARK  105  A    between atoms: _232  and  _233
REMARK  106  A    between atoms: _236  and  _238
REMARK  107  A    between atoms: _238  and  _239
REMARK  108  A    between atoms: _238  and  _241
REMARK  109  A    between atoms: _241  and  _242
REMARK  110  A    between atoms: _247  and  _249
REMARK  111  A    between atoms: _249  and  _250
REMARK  112  A    between atoms: _249  and  _252
REMARK  113  A    between atoms: _252  and  _253
REMARK  114  A    between atoms: _256  and  _258
REMARK  115  A    between atoms: _258  and  _259
REMARK  116  A    between atoms: _258  and  _261
REMARK  117  A    between atoms: _261  and  _262
REMARK  118  A    between atoms: _267  and  _269
REMARK  119  A    between atoms: _269  and  _270
REMARK  120  A    between atoms: _269  and  _272
REMARK  121  A    between atoms: _272  and  _273
REMARK  122  A    between atoms: _277  and  _278
REMARK  123  A    between atoms: _283  and  _285
REMARK  124  A    between atoms: _285  and  _286
REMARK  125  A    between atoms: _285  and  _288
REMARK  126  A    between atoms: _292  and  _293
REMARK  127  A    between atoms: _298  and  _300
REMARK  128  A    between atoms: _300  and  _301
REMARK  129  A    between atoms: _300  and  _303
REMARK  130  A    between atoms: _303  and  _304
REMARK  131  A    between atoms: _311  and  _312
REMARK  132  A    between atoms: _317  and  _319
REMARK  133  A    between atoms: _319  and  _320
REMARK  134  A    between atoms: _319  and  _322
REMARK  135  A    between atoms: _322  and  _323
REMARK  136  A    between atoms: _325  and  _327
REMARK  137  A    between atoms: _327  and  _328
REMARK  138  A    between atoms: _327  and  _330
REMARK  139  A    between atoms: _330  and  _331
REMARK  140  A    between atoms: _341  and  _343
REMARK  141  A    between atoms: _343  and  _344
REMARK  142  A    between atoms: _343  and  _346
REMARK  143  A    between atoms: _346  and  _347
REMARK  144  A    between atoms: _351  and  ZN_361
REMARK  145  A    between atoms: _352  and  _354
REMARK  146  A    between atoms: _354  and  _355
REMARK  147  A    between atoms: _354  and  _357
REMARK  148  A    between atoms: _357  and  _358
REMARK                            x       y       z     vdW  Elec       q    Type
REMARK                         _______ _______ _______ _____ _____    ______ ____
ROOT
ATOM      1  O   HOH     1     -34.677   4.730  44.065  0.00  0.00    +0.000 OA
ENDROOT
TORSDOF 0
REMARK  Name = ../refined-set-2016/4fai/4fai_pocket.pdb
REMARK  148 active torsions:
REMARK  status: ('A' for Active; 'I' for Inactive)
REMARK    1  A    between atoms: _1  and  _3
REMARK    2  A    between atoms: _3  and  _4
REMARK    3  A    between atoms: _3  and  _6
REMARK    4  A    between atoms: _6  and  _7
REMARK    5  A    between atoms: _12  and  _14
REMARK    6  A    between atoms: _14  and  _15
REMARK    7  A    between atoms: _14  and  _17
REMARK    8  A    between atoms: _17  and  _18
REMARK    9  A    between atoms: _18  and  _19
REMARK   10  A    between atoms: _19  and  _20
REMARK   11  A    between atoms: _20  and  _21
REMARK   12  A    between atoms: _25  and  _27
REMARK   13  A    between atoms: _27  and  _28
REMARK   14  A    between atoms: _27  and  _30
REMARK   15  A    between atoms: _30  and  _31
REMARK   16  A    between atoms: _37  and  _39
REMARK   17  A    between atoms: _39  and  _40
REMARK   18  A    between atoms: _39  and  _42
REMARK   19  A    between atoms: _42  and  _43
REMARK   20  A    between atoms: _46  and  _48
REMARK   21  A    between atoms: _48  and  _49
REMARK   22  A    between atoms: _48  and  _51
REMARK   23  A    between atoms: _51  and  _52
REMARK   24  A    between atoms: _52  and  _54
REMARK   25  A    between atoms: _54  and  ZN_361
REMARK   26  A    between atoms: _55  and  _57
REMARK   27  A    between atoms: _57  and  _58
REMARK   28  A    between atoms: _57  and  _60
REMARK   29  A    between atoms: _60  and  _61
REMARK   30  A    between atoms: _63  and  _65
REMARK   31  A    between atoms: _65  and  _66
REMARK   32  A    between atoms: _65  and  _68
REMARK   33  A    between atoms: _68  and  _69
REMARK   34  A    between atoms: _69  and  _70
REMARK   35  A    between atoms: _73  and  _75
REMARK   36  A    between atoms: _75  and  _76
REMARK   37  A    between atoms: _75  and  _78
REMARK   38  A    between atoms: _78  and  _79
REMARK   39  A    between atoms: _79  and  _80
REMARK   40  A    between atoms: _80  and  _81
REMARK   41  A    between atoms: _81  and  ZN_361
REMARK   42  A    between atoms: _83  and  _85
REMARK   43  A    between atoms: _85  and  _86
REMARK   44  A    between atoms: _89  and  _91
REMARK   45  A    between atoms: _91  and  _92
REMARK   46  A    between atoms: _91  and  _94
REMARK   47  A    between atoms: _94  and  _95
REMARK   48  A    between atoms: _105  and  _107
REMARK   49  A    between atoms: _107  and  _108
REMARK   50  A    between atoms: _107  and  _110
REMARK   51  A    between atoms: _110  and  _111
REMARK   52  A    between atoms: _113  and  _115
REMARK   53  A    between atoms: _115  and  _116
REMARK   54  A    between atoms: _115  and  _118
REMARK   55  A    between atoms: _118  and  _119
REMARK   56  A    between atoms: _122  and  _124
REMARK   57  A    between atoms: _124  and  _125
REMARK   58  A    between atoms: _124  and  _127
REMARK   59  A    between atoms: _127  and  _128
REMARK   60  A    between atoms: _131  and  _133
REMARK   61  A    between atoms: _133  and  _134
REMARK   62  A    between atoms: _133  and  _136
REMARK   63  A    between atoms: _136  and  _137
REMARK   64  A    between atoms: _140  and  _142
REMARK   65  A    between atoms: _142  and  _143
REMARK   66  A    between atoms: _142  and  _145
REMARK   67  A    between atoms: _145  and  _146
REMARK   68  A    between atoms: _149  and  _151
REMARK   69  A    between atoms: _151  and  _152
REMARK   70  A    between atoms: _151  and  _154
REMARK   71  A    between atoms: _154  and  _155
REMARK   72  A    between atoms: _158  and  _160
REMARK   73  A    between atoms: _160  and  _161
REMARK   74  A    between atoms: _160  and  _163
REMARK   75  A    between atoms: _163  and  _164
REMARK   76  A    between atoms: _170  and  _172
REMARK   77  A    between atoms: _172  and  _173
REMARK   78  A    between atoms: _172  and  _175
REMARK   79  A    between atoms: _175  and  _176
REMARK   80  A    between atoms: _176  and  _177
REMARK   81  A    between atoms: _179  and  _181
REMARK   82  A    between atoms: _181  and  _182
REMARK   83  A    between atoms: _181  and  _184
REMARK   84  A    between atoms: _184  and  _185
REMARK   85  A    between atoms: _187  and  _189
REMARK   86  A    between atoms: _189  and  _190
REMARK   87  A    between atoms: _189  and  _192
REMARK   88  A    between atoms: _192  and  _193
REMARK   89  A    between atoms: _199  and  _201
REMARK   90  A    between atoms: _201  and  _202
REMARK   91  A    between atoms: _201  and  _204
REMARK   92  A    between atoms: _204  and  _205
REMARK   93  A    between atoms: _208  and  _210
REMARK   94  A    between atoms: _210  and  _211
REMARK   95  A    between atoms: _210  and  _213
REMARK   96  A    between atoms: _213  and  _214
REMARK   97  A    between atoms: _214  and  _215
REMARK   98  A    between atoms: _218  and  _220
REMARK   99  A    between atoms: _220  and  _221
REMARK  100  A    between atoms: _220  and  _223
REMARK  101  A    between atoms: _223  and  _224
REMARK  102  A    between atoms: _227  and  _229
REMARK  103  A    between atoms: _229  and  _230
REMARK  104  A    between atoms: _229  and  _232
REMARK  105  A    between atoms: _232  and  _233
REMARK  106  A    between atoms: _236  and  _238
REMARK  107  A    between atoms: _238  and  _239
REMARK  108  A    between atoms: _238  and  _241
REMARK  109  A    between atoms: _241  and  _242
REMARK  110  A    between atoms: _247  and  _249
REMARK  111  A    between atoms: _249  and  _250
REMARK  112  A    between atoms: _249  and  _252
REMARK  113  A    between atoms: _252  and  _253
REMARK  114  A    between atoms: _256  and  _258
REMARK  115  A    between atoms: _258  and  _259
REMARK  116  A    between atoms: _258  and  _261
REMARK  117  A    between atoms: _261  and  _262
REMARK  118  A    between atoms: _267  and  _269
REMARK  119  A    between atoms: _269  and  _270
REMARK  120  A    between atoms: _269  and  _272
REMARK  121  A    between atoms: _272  and  _273
REMARK  122  A    between atoms: _277  and  _278
REMARK  123  A    between atoms: _283  and  _285
REMARK  124  A    between atoms: _285  and  _286
REMARK  125  A    between atoms: _285  and  _288
REMARK  126  A    between atoms: _292  and  _293
REMARK  127  A    between atoms: _298  and  _300
REMARK  128  A    between atoms: _300  and  _301
REMARK  129  A    between atoms: _300  and  _303
REMARK  130  A    between atoms: _303  and  _304
REMARK  131  A    between atoms: _311  and  _312
REMARK  132  A    between atoms: _317  and  _319
REMARK  133  A    between atoms: _319  and  _320
REMARK  134  A    between atoms: _319  and  _322
REMARK  135  A    between atoms: _322  and  _323
REMARK  136  A    between atoms: _325  and  _327
REMARK  137  A    between atoms: _327  and  _328
REMARK  138  A    between atoms: _327  and  _330
REMARK  139  A    between atoms: _330  and  _331
REMARK  140  A    between atoms: _341  and  _343
REMARK  141  A    between atoms: _343  and  _344
REMARK  142  A    between atoms: _343  and  _346
REMARK  143  A    between atoms: _346  and  _347
REMARK  144  A    between atoms: _351  and  ZN_361
REMARK  145  A    between atoms: _352  and  _354
REMARK  146  A    between atoms: _354  and  _355
REMARK  147  A    between atoms: _354  and  _357
REMARK  148  A    between atoms: _357  and  _358
REMARK                            x       y       z     vdW  Elec       q    Type
REMARK                         _______ _______ _______ _____ _____    ______ ____
ROOT
ATOM      1  O   HOH     1     -32.472   0.360  41.217  0.00  0.00    +0.000 OA
ENDROOT
TORSDOF 0
REMARK  Name = ../refined-set-2016/4fai/4fai_pocket.pdb
REMARK  148 active torsions:
REMARK  status: ('A' for Active; 'I' for Inactive)
REMARK    1  A    between atoms: _1  and  _3
REMARK    2  A    between atoms: _3  and  _4
REMARK    3  A    between atoms: _3  and  _6
REMARK    4  A    between atoms: _6  and  _7
REMARK    5  A    between atoms: _12  and  _14
REMARK    6  A    between atoms: _14  and  _15
REMARK    7  A    between atoms: _14  and  _17
REMARK    8  A    between atoms: _17  and  _18
REMARK    9  A    between atoms: _18  and  _19
REMARK   10  A    between atoms: _19  and  _20
REMARK   11  A    between atoms: _20  and  _21
REMARK   12  A    between atoms: _25  and  _27
REMARK   13  A    between atoms: _27  and  _28
REMARK   14  A    between atoms: _27  and  _30
REMARK   15  A    between atoms: _30  and  _31
REMARK   16  A    between atoms: _37  and  _39
REMARK   17  A    between atoms: _39  and  _40
REMARK   18  A    between atoms: _39  and  _42
REMARK   19  A    between atoms: _42  and  _43
REMARK   20  A    between atoms: _46  and  _48
REMARK   21  A    between atoms: _48  and  _49
REMARK   22  A    between atoms: _48  and  _51
REMARK   23  A    between atoms: _51  and  _52
REMARK   24  A    between atoms: _52  and  _54
REMARK   25  A    between atoms: _54  and  ZN_361
REMARK   26  A    between atoms: _55  and  _57
REMARK   27  A    between atoms: _57  and  _58
REMARK   28  A    between atoms: _57  and  _60
REMARK   29  A    between atoms: _60  and  _61
REMARK   30  A    between atoms: _63  and  _65
REMARK   31  A    between atoms: _65  and  _66
REMARK   32  A    between atoms: _65  and  _68
REMARK   33  A    between atoms: _68  and  _69
REMARK   34  A    between atoms: _69  and  _70
REMARK   35  A    between atoms: _73  and  _75
REMARK   36  A    between atoms: _75  and  _76
REMARK   37  A    between atoms: _75  and  _78
REMARK   38  A    between atoms: _78  and  _79
REMARK   39  A    between atoms: _79  and  _80
REMARK   40  A    between atoms: _80  and  _81
REMARK   41  A    between atoms: _81  and  ZN_361
REMARK   42  A    between atoms: _83  and  _85
REMARK   43  A    between atoms: _85  and  _86
REMARK   44  A    between atoms: _89  and  _91
REMARK   45  A    between atoms: _91  and  _92
REMARK   46  A    between atoms: _91  and  _94
REMARK   47  A    between atoms: _94  and  _95
REMARK   48  A    between atoms: _105  and  _107
REMARK   49  A    between atoms: _107  and  _108
REMARK   50  A    between atoms: _107  and  _110
REMARK   51  A    between atoms: _110  and  _111
REMARK   52  A    between atoms: _113  and  _115
REMARK   53  A    between atoms: _115  and  _116
REMARK   54  A    between atoms: _115  and  _118
REMARK   55  A    between atoms: _118  and  _119
REMARK   56  A    between atoms: _122  and  _124
REMARK   57  A    between atoms: _124  and  _125
REMARK   58  A    between atoms: _124  and  _127
REMARK   59  A    between atoms: _127  and  _128
REMARK   60  A    between atoms: _131  and  _133
REMARK   61  A    between atoms: _133  and  _134
REMARK   62  A    between atoms: _133  and  _136
REMARK   63  A    between atoms: _136  and  _137
REMARK   64  A    between atoms: _140  and  _142
REMARK   65  A    between atoms: _142  and  _143
REMARK   66  A    between atoms: _142  and  _145
REMARK   67  A    between atoms: _145  and  _146
REMARK   68  A    between atoms: _149  and  _151
REMARK   69  A    between atoms: _151  and  _152
REMARK   70  A    between atoms: _151  and  _154
REMARK   71  A    between atoms: _154  and  _155
REMARK   72  A    between atoms: _158  and  _160
REMARK   73  A    between atoms: _160  and  _161
REMARK   74  A    between atoms: _160  and  _163
REMARK   75  A    between atoms: _163  and  _164
REMARK   76  A    between atoms: _170  and  _172
REMARK   77  A    between atoms: _172  and  _173
REMARK   78  A    between atoms: _172  and  _175
REMARK   79  A    between atoms: _175  and  _176
REMARK   80  A    between atoms: _176  and  _177
REMARK   81  A    between atoms: _179  and  _181
REMARK   82  A    between atoms: _181  and  _182
REMARK   83  A    between atoms: _181  and  _184
REMARK   84  A    between atoms: _184  and  _185
REMARK   85  A    between atoms: _187  and  _189
REMARK   86  A    between atoms: _189  and  _190
REMARK   87  A    between atoms: _189  and  _192
REMARK   88  A    between atoms: _192  and  _193
REMARK   89  A    between atoms: _199  and  _201
REMARK   90  A    between atoms: _201  and  _202
REMARK   91  A    between atoms: _201  and  _204
REMARK   92  A    between atoms: _204  and  _205
REMARK   93  A    between atoms: _208  and  _210
REMARK   94  A    between atoms: _210  and  _211
REMARK   95  A    between atoms: _210  and  _213
REMARK   96  A    between atoms: _213  and  _214
REMARK   97  A    between atoms: _214  and  _215
REMARK   98  A    between atoms: _218  and  _220
REMARK   99  A    between atoms: _220  and  _221
REMARK  100  A    between atoms: _220  and  _223
REMARK  101  A    between atoms: _223  and  _224
REMARK  102  A    between atoms: _227  and  _229
REMARK  103  A    between atoms: _229  and  _230
REMARK  104  A    between atoms: _229  and  _232
REMARK  105  A    between atoms: _232  and  _233
REMARK  106  A    between atoms: _236  and  _238
REMARK  107  A    between atoms: _238  and  _239
REMARK  108  A    between atoms: _238  and  _241
REMARK  109  A    between atoms: _241  and  _242
REMARK  110  A    between atoms: _247  and  _249
REMARK  111  A    between atoms: _249  and  _250
REMARK  112  A    between atoms: _249  and  _252
REMARK  113  A    between atoms: _252  and  _253
REMARK  114  A    between atoms: _256  and  _258
REMARK  115  A    between atoms: _258  and  _259
REMARK  116  A    between atoms: _258  and  _261
REMARK  117  A    between atoms: _261  and  _262
REMARK  118  A    between atoms: _267  and  _269
REMARK  119  A    between atoms: _269  and  _270
REMARK  120  A    between atoms: _269  and  _272
REMARK  121  A    between atoms: _272  and  _273
REMARK  122  A    between atoms: _277  and  _278
REMARK  123  A    between atoms: _283  and  _285
REMARK  124  A    between atoms: _285  and  _286
REMARK  125  A    between atoms: _285  and  _288
REMARK  126  A    between atoms: _292  and  _293
REMARK  127  A    between atoms: _298  and  _300
REMARK  128  A    between atoms: _300  and  _301
REMARK  129  A    between atoms: _300  and  _303
REMARK  130  A    between atoms: _303  and  _304
REMARK  131  A    between atoms: _311  and  _312
REMARK  132  A    between atoms: _317  and  _319
REMARK  133  A    between atoms: _319  and  _320
REMARK  134  A    between atoms: _319  and  _322
REMARK  135  A    between atoms: _322  and  _323
REMARK  136  A    between atoms: _325  and  _327
REMARK  137  A    between atoms: _327  and  _328
REMARK  138  A    between atoms: _327  and  _330
REMARK  139  A    between atoms: _330  and  _331
REMARK  140  A    between atoms: _341  and  _343
REMARK  141  A    between atoms: _343  and  _344
REMARK  142  A    between atoms: _343  and  _346
REMARK  143  A    between atoms: _346  and  _347
REMARK  144  A    between atoms: _351  and  ZN_361
REMARK  145  A    between atoms: _352  and  _354
REMARK  146  A    between atoms: _354  and  _355
REMARK  147  A    between atoms: _354  and  _357
REMARK  148  A    between atoms: _357  and  _358
REMARK                            x       y       z     vdW  Elec       q    Type
REMARK                         _______ _______ _______ _____ _____    ______ ____
ROOT
ATOM      1  O   HOH     1     -36.368  -5.627  47.676  0.00  0.00    +0.000 OA
ENDROOT
TORSDOF 0
REMARK  Name = ../refined-set-2016/4fai/4fai_pocket.pdb
REMARK  148 active torsions:
REMARK  status: ('A' for Active; 'I' for Inactive)
REMARK    1  A    between atoms: _1  and  _3
REMARK    2  A    between atoms: _3  and  _4
REMARK    3  A    between atoms: _3  and  _6
REMARK    4  A    between atoms: _6  and  _7
REMARK    5  A    between atoms: _12  and  _14
REMARK    6  A    between atoms: _14  and  _15
REMARK    7  A    between atoms: _14  and  _17
REMARK    8  A    between atoms: _17  and  _18
REMARK    9  A    between atoms: _18  and  _19
REMARK   10  A    between atoms: _19  and  _20
REMARK   11  A    between atoms: _20  and  _21
REMARK   12  A    between atoms: _25  and  _27
REMARK   13  A    between atoms: _27  and  _28
REMARK   14  A    between atoms: _27  and  _30
REMARK   15  A    between atoms: _30  and  _31
REMARK   16  A    between atoms: _37  and  _39
REMARK   17  A    between atoms: _39  and  _40
REMARK   18  A    between atoms: _39  and  _42
REMARK   19  A    between atoms: _42  and  _43
REMARK   20  A    between atoms: _46  and  _48
REMARK   21  A    between atoms: _48  and  _49
REMARK   22  A    between atoms: _48  and  _51
REMARK   23  A    between atoms: _51  and  _52
REMARK   24  A    between atoms: _52  and  _54
REMARK   25  A    between atoms: _54  and  ZN_361
REMARK   26  A    between atoms: _55  and  _57
REMARK   27  A    between atoms: _57  and  _58
REMARK   28  A    between atoms: _57  and  _60
REMARK   29  A    between atoms: _60  and  _61
REMARK   30  A    between atoms: _63  and  _65
REMARK   31  A    between atoms: _65  and  _66
REMARK   32  A    between atoms: _65  and  _68
REMARK   33  A    between atoms: _68  and  _69
REMARK   34  A    between atoms: _69  and  _70
REMARK   35  A    between atoms: _73  and  _75
REMARK   36  A    between atoms: _75  and  _76
REMARK   37  A    between atoms: _75  and  _78
REMARK   38  A    between atoms: _78  and  _79
REMARK   39  A    between atoms: _79  and  _80
REMARK   40  A    between atoms: _80  and  _81
REMARK   41  A    between atoms: _81  and  ZN_361
REMARK   42  A    between atoms: _83  and  _85
REMARK   43  A    between atoms: _85  and  _86
REMARK   44  A    between atoms: _89  and  _91
REMARK   45  A    between atoms: _91  and  _92
REMARK   46  A    between atoms: _91  and  _94
REMARK   47  A    between atoms: _94  and  _95
REMARK   48  A    between atoms: _105  and  _107
REMARK   49  A    between atoms: _107  and  _108
REMARK   50  A    between atoms: _107  and  _110
REMARK   51  A    between atoms: _110  and  _111
REMARK   52  A    between atoms: _113  and  _115
REMARK   53  A    between atoms: _115  and  _116
REMARK   54  A    between atoms: _115  and  _118
REMARK   55  A    between atoms: _118  and  _119
REMARK   56  A    between atoms: _122  and  _124
REMARK   57  A    between atoms: _124  and  _125
REMARK   58  A    between atoms: _124  and  _127
REMARK   59  A    between atoms: _127  and  _128
REMARK   60  A    between atoms: _131  and  _133
REMARK   61  A    between atoms: _133  and  _134
REMARK   62  A    between atoms: _133  and  _136
REMARK   63  A    between atoms: _136  and  _137
REMARK   64  A    between atoms: _140  and  _142
REMARK   65  A    between atoms: _142  and  _143
REMARK   66  A    between atoms: _142  and  _145
REMARK   67  A    between atoms: _145  and  _146
REMARK   68  A    between atoms: _149  and  _151
REMARK   69  A    between atoms: _151  and  _152
REMARK   70  A    between atoms: _151  and  _154
REMARK   71  A    between atoms: _154  and  _155
REMARK   72  A    between atoms: _158  and  _160
REMARK   73  A    between atoms: _160  and  _161
REMARK   74  A    between atoms: _160  and  _163
REMARK   75  A    between atoms: _163  and  _164
REMARK   76  A    between atoms: _170  and  _172
REMARK   77  A    between atoms: _172  and  _173
REMARK   78  A    between atoms: _172  and  _175
REMARK   79  A    between atoms: _175  and  _176
REMARK   80  A    between atoms: _176  and  _177
REMARK   81  A    between atoms: _179  and  _181
REMARK   82  A    between atoms: _181  and  _182
REMARK   83  A    between atoms: _181  and  _184
REMARK   84  A    between atoms: _184  and  _185
REMARK   85  A    between atoms: _187  and  _189
REMARK   86  A    between atoms: _189  and  _190
REMARK   87  A    between atoms: _189  and  _192
REMARK   88  A    between atoms: _192  and  _193
REMARK   89  A    between atoms: _199  and  _201
REMARK   90  A    between atoms: _201  and  _202
REMARK   91  A    between atoms: _201  and  _204
REMARK   92  A    between atoms: _204  and  _205
REMARK   93  A    between atoms: _208  and  _210
REMARK   94  A    between atoms: _210  and  _211
REMARK   95  A    between atoms: _210  and  _213
REMARK   96  A    between atoms: _213  and  _214
REMARK   97  A    between atoms: _214  and  _215
REMARK   98  A    between atoms: _218  and  _220
REMARK   99  A    between atoms: _220  and  _221
REMARK  100  A    between atoms: _220  and  _223
REMARK  101  A    between atoms: _223  and  _224
REMARK  102  A    between atoms: _227  and  _229
REMARK  103  A    between atoms: _229  and  _230
REMARK  104  A    between atoms: _229  and  _232
REMARK  105  A    between atoms: _232  and  _233
REMARK  106  A    between atoms: _236  and  _238
REMARK  107  A    between atoms: _238  and  _239
REMARK  108  A    between atoms: _238  and  _241
REMARK  109  A    between atoms: _241  and  _242
REMARK  110  A    between atoms: _247  and  _249
REMARK  111  A    between atoms: _249  and  _250
REMARK  112  A    between atoms: _249  and  _252
REMARK  113  A    between atoms: _252  and  _253
REMARK  114  A    between atoms: _256  and  _258
REMARK  115  A    between atoms: _258  and  _259
REMARK  116  A    between atoms: _258  and  _261
REMARK  117  A    between atoms: _261  and  _262
REMARK  118  A    between atoms: _267  and  _269
REMARK  119  A    between atoms: _269  and  _270
REMARK  120  A    between atoms: _269  and  _272
REMARK  121  A    between atoms: _272  and  _273
REMARK  122  A    between atoms: _277  and  _278
REMARK  123  A    between atoms: _283  and  _285
REMARK  124  A    between atoms: _285  and  _286
REMARK  125  A    between atoms: _285  and  _288
REMARK  126  A    between atoms: _292  and  _293
REMARK  127  A    between atoms: _298  and  _300
REMARK  128  A    between atoms: _300  and  _301
REMARK  129  A    between atoms: _300  and  _303
REMARK  130  A    between atoms: _303  and  _304
REMARK  131  A    between atoms: _311  and  _312
REMARK  132  A    between atoms: _317  and  _319
REMARK  133  A    between atoms: _319  and  _320
REMARK  134  A    between atoms: _319  and  _322
REMARK  135  A    between atoms: _322  and  _323
REMARK  136  A    between atoms: _325  and  _327
REMARK  137  A    between atoms: _327  and  _328
REMARK  138  A    between atoms: _327  and  _330
REMARK  139  A    between atoms: _330  and  _331
REMARK  140  A    between atoms: _341  and  _343
REMARK  141  A    between atoms: _343  and  _344
REMARK  142  A    between atoms: _343  and  _346
REMARK  143  A    between atoms: _346  and  _347
REMARK  144  A    between atoms: _351  and  ZN_361
REMARK  145  A    between atoms: _352  and  _354
REMARK  146  A    between atoms: _354  and  _355
REMARK  147  A    between atoms: _354  and  _357
REMARK  148  A    between atoms: _357  and  _358
REMARK                            x       y       z     vdW  Elec       q    Type
REMARK                         _______ _______ _______ _____ _____    ______ ____
ROOT
ATOM      1  O   HOH     1     -34.727  -9.508  46.040  0.00  0.00    +0.000 OA
ENDROOT
TORSDOF 0
REMARK  Name = ../refined-set-2016/4fai/4fai_pocket.pdb
REMARK  148 active torsions:
REMARK  status: ('A' for Active; 'I' for Inactive)
REMARK    1  A    between atoms: _1  and  _3
REMARK    2  A    between atoms: _3  and  _4
REMARK    3  A    between atoms: _3  and  _6
REMARK    4  A    between atoms: _6  and  _7
REMARK    5  A    between atoms: _12  and  _14
REMARK    6  A    between atoms: _14  and  _15
REMARK    7  A    between atoms: _14  and  _17
REMARK    8  A    between atoms: _17  and  _18
REMARK    9  A    between atoms: _18  and  _19
REMARK   10  A    between atoms: _19  and  _20
REMARK   11  A    between atoms: _20  and  _21
REMARK   12  A    between atoms: _25  and  _27
REMARK   13  A    between atoms: _27  and  _28
REMARK   14  A    between atoms: _27  and  _30
REMARK   15  A    between atoms: _30  and  _31
REMARK   16  A    between atoms: _37  and  _39
REMARK   17  A    between atoms: _39  and  _40
REMARK   18  A    between atoms: _39  and  _42
REMARK   19  A    between atoms: _42  and  _43
REMARK   20  A    between atoms: _46  and  _48
REMARK   21  A    between atoms: _48  and  _49
REMARK   22  A    between atoms: _48  and  _51
REMARK   23  A    between atoms: _51  and  _52
REMARK   24  A    between atoms: _52  and  _54
REMARK   25  A    between atoms: _54  and  ZN_361
REMARK   26  A    between atoms: _55  and  _57
REMARK   27  A    between atoms: _57  and  _58
REMARK   28  A    between atoms: _57  and  _60
REMARK   29  A    between atoms: _60  and  _61
REMARK   30  A    between atoms: _63  and  _65
REMARK   31  A    between atoms: _65  and  _66
REMARK   32  A    between atoms: _65  and  _68
REMARK   33  A    between atoms: _68  and  _69
REMARK   34  A    between atoms: _69  and  _70
REMARK   35  A    between atoms: _73  and  _75
REMARK   36  A    between atoms: _75  and  _76
REMARK   37  A    between atoms: _75  and  _78
REMARK   38  A    between atoms: _78  and  _79
REMARK   39  A    between atoms: _79  and  _80
REMARK   40  A    between atoms: _80  and  _81
REMARK   41  A    between atoms: _81  and  ZN_361
REMARK   42  A    between atoms: _83  and  _85
REMARK   43  A    between atoms: _85  and  _86
REMARK   44  A    between atoms: _89  and  _91
REMARK   45  A    between atoms: _91  and  _92
REMARK   46  A    between atoms: _91  and  _94
REMARK   47  A    between atoms: _94  and  _95
REMARK   48  A    between atoms: _105  and  _107
REMARK   49  A    between atoms: _107  and  _108
REMARK   50  A    between atoms: _107  and  _110
REMARK   51  A    between atoms: _110  and  _111
REMARK   52  A    between atoms: _113  and  _115
REMARK   53  A    between atoms: _115  and  _116
REMARK   54  A    between atoms: _115  and  _118
REMARK   55  A    between atoms: _118  and  _119
REMARK   56  A    between atoms: _122  and  _124
REMARK   57  A    between atoms: _124  and  _125
REMARK   58  A    between atoms: _124  and  _127
REMARK   59  A    between atoms: _127  and  _128
REMARK   60  A    between atoms: _131  and  _133
REMARK   61  A    between atoms: _133  and  _134
REMARK   62  A    between atoms: _133  and  _136
REMARK   63  A    between atoms: _136  and  _137
REMARK   64  A    between atoms: _140  and  _142
REMARK   65  A    between atoms: _142  and  _143
REMARK   66  A    between atoms: _142  and  _145
REMARK   67  A    between atoms: _145  and  _146
REMARK   68  A    between atoms: _149  and  _151
REMARK   69  A    between atoms: _151  and  _152
REMARK   70  A    between atoms: _151  and  _154
REMARK   71  A    between atoms: _154  and  _155
REMARK   72  A    between atoms: _158  and  _160
REMARK   73  A    between atoms: _160  and  _161
REMARK   74  A    between atoms: _160  and  _163
REMARK   75  A    between atoms: _163  and  _164
REMARK   76  A    between atoms: _170  and  _172
REMARK   77  A    between atoms: _172  and  _173
REMARK   78  A    between atoms: _172  and  _175
REMARK   79  A    between atoms: _175  and  _176
REMARK   80  A    between atoms: _176  and  _177
REMARK   81  A    between atoms: _179  and  _181
REMARK   82  A    between atoms: _181  and  _182
REMARK   83  A    between atoms: _181  and  _184
REMARK   84  A    between atoms: _184  and  _185
REMARK   85  A    between atoms: _187  and  _189
REMARK   86  A    between atoms: _189  and  _190
REMARK   87  A    between atoms: _189  and  _192
REMARK   88  A    between atoms: _192  and  _193
REMARK   89  A    between atoms: _199  and  _201
REMARK   90  A    between atoms: _201  and  _202
REMARK   91  A    between atoms: _201  and  _204
REMARK   92  A    between atoms: _204  and  _205
REMARK   93  A    between atoms: _208  and  _210
REMARK   94  A    between atoms: _210  and  _211
REMARK   95  A    between atoms: _210  and  _213
REMARK   96  A    between atoms: _213  and  _214
REMARK   97  A    between atoms: _214  and  _215
REMARK   98  A    between atoms: _218  and  _220
REMARK   99  A    between atoms: _220  and  _221
REMARK  100  A    between atoms: _220  and  _223
REMARK  101  A    between atoms: _223  and  _224
REMARK  102  A    between atoms: _227  and  _229
REMARK  103  A    between atoms: _229  and  _230
REMARK  104  A    between atoms: _229  and  _232
REMARK  105  A    between atoms: _232  and  _233
REMARK  106  A    between atoms: _236  and  _238
REMARK  107  A    between atoms: _238  and  _239
REMARK  108  A    between atoms: _238  and  _241
REMARK  109  A    between atoms: _241  and  _242
REMARK  110  A    between atoms: _247  and  _249
REMARK  111  A    between atoms: _249  and  _250
REMARK  112  A    between atoms: _249  and  _252
REMARK  113  A    between atoms: _252  and  _253
REMARK  114  A    between atoms: _256  and  _258
REMARK  115  A    between atoms: _258  and  _259
REMARK  116  A    between atoms: _258  and  _261
REMARK  117  A    between atoms: _261  and  _262
REMARK  118  A    between atoms: _267  and  _269
REMARK  119  A    between atoms: _269  and  _270
REMARK  120  A    between atoms: _269  and  _272
REMARK  121  A    between atoms: _272  and  _273
REMARK  122  A    between atoms: _277  and  _278
REMARK  123  A    between atoms: _283  and  _285
REMARK  124  A    between atoms: _285  and  _286
REMARK  125  A    between atoms: _285  and  _288
REMARK  126  A    between atoms: _292  and  _293
REMARK  127  A    between atoms: _298  and  _300
REMARK  128  A    between atoms: _300  and  _301
REMARK  129  A    between atoms: _300  and  _303
REMARK  130  A    between atoms: _303  and  _304
REMARK  131  A    between atoms: _311  and  _312
REMARK  132  A    between atoms: _317  and  _319
REMARK  133  A    between atoms: _319  and  _320
REMARK  134  A    between atoms: _319  and  _322
REMARK  135  A    between atoms: _322  and  _323
REMARK  136  A    between atoms: _325  and  _327
REMARK  137  A    between atoms: _327  and  _328
REMARK  138  A    between atoms: _327  and  _330
REMARK  139  A    between atoms: _330  and  _331
REMARK  140  A    between atoms: _341  and  _343
REMARK  141  A    between atoms: _343  and  _344
REMARK  142  A    between atoms: _343  and  _346
REMARK  143  A    between atoms: _346  and  _347
REMARK  144  A    between atoms: _351  and  ZN_361
REMARK  145  A    between atoms: _352  and  _354
REMARK  146  A    between atoms: _354  and  _355
REMARK  147  A    between atoms: _354  and  _357
REMARK  148  A    between atoms: _357  and  _358
REMARK                            x       y       z     vdW  Elec       q    Type
REMARK                         _______ _______ _______ _____ _____    ______ ____
ROOT
ATOM      1  O   HOH     1     -30.797   3.779  34.886  0.00  0.00    +0.000 OA
ENDROOT
TORSDOF 0
REMARK  Name = ../refined-set-2016/4fai/4fai_pocket.pdb
REMARK  148 active torsions:
REMARK  status: ('A' for Active; 'I' for Inactive)
REMARK    1  A    between atoms: _1  and  _3
REMARK    2  A    between atoms: _3  and  _4
REMARK    3  A    between atoms: _3  and  _6
REMARK    4  A    between atoms: _6  and  _7
REMARK    5  A    between atoms: _12  and  _14
REMARK    6  A    between atoms: _14  and  _15
REMARK    7  A    between atoms: _14  and  _17
REMARK    8  A    between atoms: _17  and  _18
REMARK    9  A    between atoms: _18  and  _19
REMARK   10  A    between atoms: _19  and  _20
REMARK   11  A    between atoms: _20  and  _21
REMARK   12  A    between atoms: _25  and  _27
REMARK   13  A    between atoms: _27  and  _28
REMARK   14  A    between atoms: _27  and  _30
REMARK   15  A    between atoms: _30  and  _31
REMARK   16  A    between atoms: _37  and  _39
REMARK   17  A    between atoms: _39  and  _40
REMARK   18  A    between atoms: _39  and  _42
REMARK   19  A    between atoms: _42  and  _43
REMARK   20  A    between atoms: _46  and  _48
REMARK   21  A    between atoms: _48  and  _49
REMARK   22  A    between atoms: _48  and  _51
REMARK   23  A    between atoms: _51  and  _52
REMARK   24  A    between atoms: _52  and  _54
REMARK   25  A    between atoms: _54  and  ZN_361
REMARK   26  A    between atoms: _55  and  _57
REMARK   27  A    between atoms: _57  and  _58
REMARK   28  A    between atoms: _57  and  _60
REMARK   29  A    between atoms: _60  and  _61
REMARK   30  A    between atoms: _63  and  _65
REMARK   31  A    between atoms: _65  and  _66
REMARK   32  A    between atoms: _65  and  _68
REMARK   33  A    between atoms: _68  and  _69
REMARK   34  A    between atoms: _69  and  _70
REMARK   35  A    between atoms: _73  and  _75
REMARK   36  A    between atoms: _75  and  _76
REMARK   37  A    between atoms: _75  and  _78
REMARK   38  A    between atoms: _78  and  _79
REMARK   39  A    between atoms: _79  and  _80
REMARK   40  A    between atoms: _80  and  _81
REMARK   41  A    between atoms: _81  and  ZN_361
REMARK   42  A    between atoms: _83  and  _85
REMARK   43  A    between atoms: _85  and  _86
REMARK   44  A    between atoms: _89  and  _91
REMARK   45  A    between atoms: _91  and  _92
REMARK   46  A    between atoms: _91  and  _94
REMARK   47  A    between atoms: _94  and  _95
REMARK   48  A    between atoms: _105  and  _107
REMARK   49  A    between atoms: _107  and  _108
REMARK   50  A    between atoms: _107  and  _110
REMARK   51  A    between atoms: _110  and  _111
REMARK   52  A    between atoms: _113  and  _115
REMARK   53  A    between atoms: _115  and  _116
REMARK   54  A    between atoms: _115  and  _118
REMARK   55  A    between atoms: _118  and  _119
REMARK   56  A    between atoms: _122  and  _124
REMARK   57  A    between atoms: _124  and  _125
REMARK   58  A    between atoms: _124  and  _127
REMARK   59  A    between atoms: _127  and  _128
REMARK   60  A    between atoms: _131  and  _133
REMARK   61  A    between atoms: _133  and  _134
REMARK   62  A    between atoms: _133  and  _136
REMARK   63  A    between atoms: _136  and  _137
REMARK   64  A    between atoms: _140  and  _142
REMARK   65  A    between atoms: _142  and  _143
REMARK   66  A    between atoms: _142  and  _145
REMARK   67  A    between atoms: _145  and  _146
REMARK   68  A    between atoms: _149  and  _151
REMARK   69  A    between atoms: _151  and  _152
REMARK   70  A    between atoms: _151  and  _154
REMARK   71  A    between atoms: _154  and  _155
REMARK   72  A    between atoms: _158  and  _160
REMARK   73  A    between atoms: _160  and  _161
REMARK   74  A    between atoms: _160  and  _163
REMARK   75  A    between atoms: _163  and  _164
REMARK   76  A    between atoms: _170  and  _172
REMARK   77  A    between atoms: _172  and  _173
REMARK   78  A    between atoms: _172  and  _175
REMARK   79  A    between atoms: _175  and  _176
REMARK   80  A    between atoms: _176  and  _177
REMARK   81  A    between atoms: _179  and  _181
REMARK   82  A    between atoms: _181  and  _182
REMARK   83  A    between atoms: _181  and  _184
REMARK   84  A    between atoms: _184  and  _185
REMARK   85  A    between atoms: _187  and  _189
REMARK   86  A    between atoms: _189  and  _190
REMARK   87  A    between atoms: _189  and  _192
REMARK   88  A    between atoms: _192  and  _193
REMARK   89  A    between atoms: _199  and  _201
REMARK   90  A    between atoms: _201  and  _202
REMARK   91  A    between atoms: _201  and  _204
REMARK   92  A    between atoms: _204  and  _205
REMARK   93  A    between atoms: _208  and  _210
REMARK   94  A    between atoms: _210  and  _211
REMARK   95  A    between atoms: _210  and  _213
REMARK   96  A    between atoms: _213  and  _214
REMARK   97  A    between atoms: _214  and  _215
REMARK   98  A    between atoms: _218  and  _220
REMARK   99  A    between atoms: _220  and  _221
REMARK  100  A    between atoms: _220  and  _223
REMARK  101  A    between atoms: _223  and  _224
REMARK  102  A    between atoms: _227  and  _229
REMARK  103  A    between atoms: _229  and  _230
REMARK  104  A    between atoms: _229  and  _232
REMARK  105  A    between atoms: _232  and  _233
REMARK  106  A    between atoms: _236  and  _238
REMARK  107  A    between atoms: _238  and  _239
REMARK  108  A    between atoms: _238  and  _241
REMARK  109  A    between atoms: _241  and  _242
REMARK  110  A    between atoms: _247  and  _249
REMARK  111  A    between atoms: _249  and  _250
REMARK  112  A    between atoms: _249  and  _252
REMARK  113  A    between atoms: _252  and  _253
REMARK  114  A    between atoms: _256  and  _258
REMARK  115  A    between atoms: _258  and  _259
REMARK  116  A    between atoms: _258  and  _261
REMARK  117  A    between atoms: _261  and  _262
REMARK  118  A    between atoms: _267  and  _269
REMARK  119  A    between atoms: _269  and  _270
REMARK  120  A    between atoms: _269  and  _272
REMARK  121  A    between atoms: _272  and  _273
REMARK  122  A    between atoms: _277  and  _278
REMARK  123  A    between atoms: _283  and  _285
REMARK  124  A    between atoms: _285  and  _286
REMARK  125  A    between atoms: _285  and  _288
REMARK  126  A    between atoms: _292  and  _293
REMARK  127  A    between atoms: _298  and  _300
REMARK  128  A    between atoms: _300  and  _301
REMARK  129  A    between atoms: _300  and  _303
REMARK  130  A    between atoms: _303  and  _304
REMARK  131  A    between atoms: _311  and  _312
REMARK  132  A    between atoms: _317  and  _319
REMARK  133  A    between atoms: _319  and  _320
REMARK  134  A    between atoms: _319  and  _322
REMARK  135  A    between atoms: _322  and  _323
REMARK  136  A    between atoms: _325  and  _327
REMARK  137  A    between atoms: _327  and  _328
REMARK  138  A    between atoms: _327  and  _330
REMARK  139  A    between atoms: _330  and  _331
REMARK  140  A    between atoms: _341  and  _343
REMARK  141  A    between atoms: _343  and  _344
REMARK  142  A    between atoms: _343  and  _346
REMARK  143  A    between atoms: _346  and  _347
REMARK  144  A    between atoms: _351  and  ZN_361
REMARK  145  A    between atoms: _352  and  _354
REMARK  146  A    between atoms: _354  and  _355
REMARK  147  A    between atoms: _354  and  _357
REMARK  148  A    between atoms: _357  and  _358
REMARK                            x       y       z     vdW  Elec       q    Type
REMARK                         _______ _______ _______ _____ _____    ______ ____
ROOT
ATOM      1  O   HOH     1     -34.615  -7.607  47.561  0.00  0.00    +0.000 OA
ENDROOT
TORSDOF 0
REMARK  Name = ../refined-set-2016/4fai/4fai_pocket.pdb
REMARK  148 active torsions:
REMARK  status: ('A' for Active; 'I' for Inactive)
REMARK    1  A    between atoms: _1  and  _3
REMARK    2  A    between atoms: _3  and  _4
REMARK    3  A    between atoms: _3  and  _6
REMARK    4  A    between atoms: _6  and  _7
REMARK    5  A    between atoms: _12  and  _14
REMARK    6  A    between atoms: _14  and  _15
REMARK    7  A    between atoms: _14  and  _17
REMARK    8  A    between atoms: _17  and  _18
REMARK    9  A    between atoms: _18  and  _19
REMARK   10  A    between atoms: _19  and  _20
REMARK   11  A    between atoms: _20  and  _21
REMARK   12  A    between atoms: _25  and  _27
REMARK   13  A    between atoms: _27  and  _28
REMARK   14  A    between atoms: _27  and  _30
REMARK   15  A    between atoms: _30  and  _31
REMARK   16  A    between atoms: _37  and  _39
REMARK   17  A    between atoms: _39  and  _40
REMARK   18  A    between atoms: _39  and  _42
REMARK   19  A    between atoms: _42  and  _43
REMARK   20  A    between atoms: _46  and  _48
REMARK   21  A    between atoms: _48  and  _49
REMARK   22  A    between atoms: _48  and  _51
REMARK   23  A    between atoms: _51  and  _52
REMARK   24  A    between atoms: _52  and  _54
REMARK   25  A    between atoms: _54  and  ZN_361
REMARK   26  A    between atoms: _55  and  _57
REMARK   27  A    between atoms: _57  and  _58
REMARK   28  A    between atoms: _57  and  _60
REMARK   29  A    between atoms: _60  and  _61
REMARK   30  A    between atoms: _63  and  _65
REMARK   31  A    between atoms: _65  and  _66
REMARK   32  A    between atoms: _65  and  _68
REMARK   33  A    between atoms: _68  and  _69
REMARK   34  A    between atoms: _69  and  _70
REMARK   35  A    between atoms: _73  and  _75
REMARK   36  A    between atoms: _75  and  _76
REMARK   37  A    between atoms: _75  and  _78
REMARK   38  A    between atoms: _78  and  _79
REMARK   39  A    between atoms: _79  and  _80
REMARK   40  A    between atoms: _80  and  _81
REMARK   41  A    between atoms: _81  and  ZN_361
REMARK   42  A    between atoms: _83  and  _85
REMARK   43  A    between atoms: _85  and  _86
REMARK   44  A    between atoms: _89  and  _91
REMARK   45  A    between atoms: _91  and  _92
REMARK   46  A    between atoms: _91  and  _94
REMARK   47  A    between atoms: _94  and  _95
REMARK   48  A    between atoms: _105  and  _107
REMARK   49  A    between atoms: _107  and  _108
REMARK   50  A    between atoms: _107  and  _110
REMARK   51  A    between atoms: _110  and  _111
REMARK   52  A    between atoms: _113  and  _115
REMARK   53  A    between atoms: _115  and  _116
REMARK   54  A    between atoms: _115  and  _118
REMARK   55  A    between atoms: _118  and  _119
REMARK   56  A    between atoms: _122  and  _124
REMARK   57  A    between atoms: _124  and  _125
REMARK   58  A    between atoms: _124  and  _127
REMARK   59  A    between atoms: _127  and  _128
REMARK   60  A    between atoms: _131  and  _133
REMARK   61  A    between atoms: _133  and  _134
REMARK   62  A    between atoms: _133  and  _136
REMARK   63  A    between atoms: _136  and  _137
REMARK   64  A    between atoms: _140  and  _142
REMARK   65  A    between atoms: _142  and  _143
REMARK   66  A    between atoms: _142  and  _145
REMARK   67  A    between atoms: _145  and  _146
REMARK   68  A    between atoms: _149  and  _151
REMARK   69  A    between atoms: _151  and  _152
REMARK   70  A    between atoms: _151  and  _154
REMARK   71  A    between atoms: _154  and  _155
REMARK   72  A    between atoms: _158  and  _160
REMARK   73  A    between atoms: _160  and  _161
REMARK   74  A    between atoms: _160  and  _163
REMARK   75  A    between atoms: _163  and  _164
REMARK   76  A    between atoms: _170  and  _172
REMARK   77  A    between atoms: _172  and  _173
REMARK   78  A    between atoms: _172  and  _175
REMARK   79  A    between atoms: _175  and  _176
REMARK   80  A    between atoms: _176  and  _177
REMARK   81  A    between atoms: _179  and  _181
REMARK   82  A    between atoms: _181  and  _182
REMARK   83  A    between atoms: _181  and  _184
REMARK   84  A    between atoms: _184  and  _185
REMARK   85  A    between atoms: _187  and  _189
REMARK   86  A    between atoms: _189  and  _190
REMARK   87  A    between atoms: _189  and  _192
REMARK   88  A    between atoms: _192  and  _193
REMARK   89  A    between atoms: _199  and  _201
REMARK   90  A    between atoms: _201  and  _202
REMARK   91  A    between atoms: _201  and  _204
REMARK   92  A    between atoms: _204  and  _205
REMARK   93  A    between atoms: _208  and  _210
REMARK   94  A    between atoms: _210  and  _211
REMARK   95  A    between atoms: _210  and  _213
REMARK   96  A    between atoms: _213  and  _214
REMARK   97  A    between atoms: _214  and  _215
REMARK   98  A    between atoms: _218  and  _220
REMARK   99  A    between atoms: _220  and  _221
REMARK  100  A    between atoms: _220  and  _223
REMARK  101  A    between atoms: _223  and  _224
REMARK  102  A    between atoms: _227  and  _229
REMARK  103  A    between atoms: _229  and  _230
REMARK  104  A    between atoms: _229  and  _232
REMARK  105  A    between atoms: _232  and  _233
REMARK  106  A    between atoms: _236  and  _238
REMARK  107  A    between atoms: _238  and  _239
REMARK  108  A    between atoms: _238  and  _241
REMARK  109  A    between atoms: _241  and  _242
REMARK  110  A    between atoms: _247  and  _249
REMARK  111  A    between atoms: _249  and  _250
REMARK  112  A    between atoms: _249  and  _252
REMARK  113  A    between atoms: _252  and  _253
REMARK  114  A    between atoms: _256  and  _258
REMARK  115  A    between atoms: _258  and  _259
REMARK  116  A    between atoms: _258  and  _261
REMARK  117  A    between atoms: _261  and  _262
REMARK  118  A    between atoms: _267  and  _269
REMARK  119  A    between atoms: _269  and  _270
REMARK  120  A    between atoms: _269  and  _272
REMARK  121  A    between atoms: _272  and  _273
REMARK  122  A    between atoms: _277  and  _278
REMARK  123  A    between atoms: _283  and  _285
REMARK  124  A    between atoms: _285  and  _286
REMARK  125  A    between atoms: _285  and  _288
REMARK  126  A    between atoms: _292  and  _293
REMARK  127  A    between atoms: _298  and  _300
REMARK  128  A    between atoms: _300  and  _301
REMARK  129  A    between atoms: _300  and  _303
REMARK  130  A    between atoms: _303  and  _304
REMARK  131  A    between atoms: _311  and  _312
REMARK  132  A    between atoms: _317  and  _319
REMARK  133  A    between atoms: _319  and  _320
REMARK  134  A    between atoms: _319  and  _322
REMARK  135  A    between atoms: _322  and  _323
REMARK  136  A    between atoms: _325  and  _327
REMARK  137  A    between atoms: _327  and  _328
REMARK  138  A    between atoms: _327  and  _330
REMARK  139  A    between atoms: _330  and  _331
REMARK  140  A    between atoms: _341  and  _343
REMARK  141  A    between atoms: _343  and  _344
REMARK  142  A    between atoms: _343  and  _346
REMARK  143  A    between atoms: _346  and  _347
REMARK  144  A    between atoms: _351  and  ZN_361
REMARK  145  A    between atoms: _352  and  _354
REMARK  146  A    between atoms: _354  and  _355
REMARK  147  A    between atoms: _354  and  _357
REMARK  148  A    between atoms: _357  and  _358
REMARK                            x       y       z     vdW  Elec       q    Type
REMARK                         _______ _______ _______ _____ _____    ______ ____
ROOT
ATOM      1  O   HOH     1     -35.689   3.454  39.084  0.00  0.00    +0.000 OA
ENDROOT
TORSDOF 0
REMARK  Name = ../refined-set-2016/4fai/4fai_pocket.pdb
REMARK  148 active torsions:
REMARK  status: ('A' for Active; 'I' for Inactive)
REMARK    1  A    between atoms: _1  and  _3
REMARK    2  A    between atoms: _3  and  _4
REMARK    3  A    between atoms: _3  and  _6
REMARK    4  A    between atoms: _6  and  _7
REMARK    5  A    between atoms: _12  and  _14
REMARK    6  A    between atoms: _14  and  _15
REMARK    7  A    between atoms: _14  and  _17
REMARK    8  A    between atoms: _17  and  _18
REMARK    9  A    between atoms: _18  and  _19
REMARK   10  A    between atoms: _19  and  _20
REMARK   11  A    between atoms: _20  and  _21
REMARK   12  A    between atoms: _25  and  _27
REMARK   13  A    between atoms: _27  and  _28
REMARK   14  A    between atoms: _27  and  _30
REMARK   15  A    between atoms: _30  and  _31
REMARK   16  A    between atoms: _37  and  _39
REMARK   17  A    between atoms: _39  and  _40
REMARK   18  A    between atoms: _39  and  _42
REMARK   19  A    between atoms: _42  and  _43
REMARK   20  A    between atoms: _46  and  _48
REMARK   21  A    between atoms: _48  and  _49
REMARK   22  A    between atoms: _48  and  _51
REMARK   23  A    between atoms: _51  and  _52
REMARK   24  A    between atoms: _52  and  _54
REMARK   25  A    between atoms: _54  and  ZN_361
REMARK   26  A    between atoms: _55  and  _57
REMARK   27  A    between atoms: _57  and  _58
REMARK   28  A    between atoms: _57  and  _60
REMARK   29  A    between atoms: _60  and  _61
REMARK   30  A    between atoms: _63  and  _65
REMARK   31  A    between atoms: _65  and  _66
REMARK   32  A    between atoms: _65  and  _68
REMARK   33  A    between atoms: _68  and  _69
REMARK   34  A    between atoms: _69  and  _70
REMARK   35  A    between atoms: _73  and  _75
REMARK   36  A    between atoms: _75  and  _76
REMARK   37  A    between atoms: _75  and  _78
REMARK   38  A    between atoms: _78  and  _79
REMARK   39  A    between atoms: _79  and  _80
REMARK   40  A    between atoms: _80  and  _81
REMARK   41  A    between atoms: _81  and  ZN_361
REMARK   42  A    between atoms: _83  and  _85
REMARK   43  A    between atoms: _85  and  _86
REMARK   44  A    between atoms: _89  and  _91
REMARK   45  A    between atoms: _91  and  _92
REMARK   46  A    between atoms: _91  and  _94
REMARK   47  A    between atoms: _94  and  _95
REMARK   48  A    between atoms: _105  and  _107
REMARK   49  A    between atoms: _107  and  _108
REMARK   50  A    between atoms: _107  and  _110
REMARK   51  A    between atoms: _110  and  _111
REMARK   52  A    between atoms: _113  and  _115
REMARK   53  A    between atoms: _115  and  _116
REMARK   54  A    between atoms: _115  and  _118
REMARK   55  A    between atoms: _118  and  _119
REMARK   56  A    between atoms: _122  and  _124
REMARK   57  A    between atoms: _124  and  _125
REMARK   58  A    between atoms: _124  and  _127
REMARK   59  A    between atoms: _127  and  _128
REMARK   60  A    between atoms: _131  and  _133
REMARK   61  A    between atoms: _133  and  _134
REMARK   62  A    between atoms: _133  and  _136
REMARK   63  A    between atoms: _136  and  _137
REMARK   64  A    between atoms: _140  and  _142
REMARK   65  A    between atoms: _142  and  _143
REMARK   66  A    between atoms: _142  and  _145
REMARK   67  A    between atoms: _145  and  _146
REMARK   68  A    between atoms: _149  and  _151
REMARK   69  A    between atoms: _151  and  _152
REMARK   70  A    between atoms: _151  and  _154
REMARK   71  A    between atoms: _154  and  _155
REMARK   72  A    between atoms: _158  and  _160
REMARK   73  A    between atoms: _160  and  _161
REMARK   74  A    between atoms: _160  and  _163
REMARK   75  A    between atoms: _163  and  _164
REMARK   76  A    between atoms: _170  and  _172
REMARK   77  A    between atoms: _172  and  _173
REMARK   78  A    between atoms: _172  and  _175
REMARK   79  A    between atoms: _175  and  _176
REMARK   80  A    between atoms: _176  and  _177
REMARK   81  A    between atoms: _179  and  _181
REMARK   82  A    between atoms: _181  and  _182
REMARK   83  A    between atoms: _181  and  _184
REMARK   84  A    between atoms: _184  and  _185
REMARK   85  A    between atoms: _187  and  _189
REMARK   86  A    between atoms: _189  and  _190
REMARK   87  A    between atoms: _189  and  _192
REMARK   88  A    between atoms: _192  and  _193
REMARK   89  A    between atoms: _199  and  _201
REMARK   90  A    between atoms: _201  and  _202
REMARK   91  A    between atoms: _201  and  _204
REMARK   92  A    between atoms: _204  and  _205
REMARK   93  A    between atoms: _208  and  _210
REMARK   94  A    between atoms: _210  and  _211
REMARK   95  A    between atoms: _210  and  _213
REMARK   96  A    between atoms: _213  and  _214
REMARK   97  A    between atoms: _214  and  _215
REMARK   98  A    between atoms: _218  and  _220
REMARK   99  A    between atoms: _220  and  _221
REMARK  100  A    between atoms: _220  and  _223
REMARK  101  A    between atoms: _223  and  _224
REMARK  102  A    between atoms: _227  and  _229
REMARK  103  A    between atoms: _229  and  _230
REMARK  104  A    between atoms: _229  and  _232
REMARK  105  A    between atoms: _232  and  _233
REMARK  106  A    between atoms: _236  and  _238
REMARK  107  A    between atoms: _238  and  _239
REMARK  108  A    between atoms: _238  and  _241
REMARK  109  A    between atoms: _241  and  _242
REMARK  110  A    between atoms: _247  and  _249
REMARK  111  A    between atoms: _249  and  _250
REMARK  112  A    between atoms: _249  and  _252
REMARK  113  A    between atoms: _252  and  _253
REMARK  114  A    between atoms: _256  and  _258
REMARK  115  A    between atoms: _258  and  _259
REMARK  116  A    between atoms: _258  and  _261
REMARK  117  A    between atoms: _261  and  _262
REMARK  118  A    between atoms: _267  and  _269
REMARK  119  A    between atoms: _269  and  _270
REMARK  120  A    between atoms: _269  and  _272
REMARK  121  A    between atoms: _272  and  _273
REMARK  122  A    between atoms: _277  and  _278
REMARK  123  A    between atoms: _283  and  _285
REMARK  124  A    between atoms: _285  and  _286
REMARK  125  A    between atoms: _285  and  _288
REMARK  126  A    between atoms: _292  and  _293
REMARK  127  A    between atoms: _298  and  _300
REMARK  128  A    between atoms: _300  and  _301
REMARK  129  A    between atoms: _300  and  _303
REMARK  130  A    between atoms: _303  and  _304
REMARK  131  A    between atoms: _311  and  _312
REMARK  132  A    between atoms: _317  and  _319
REMARK  133  A    between atoms: _319  and  _320
REMARK  134  A    between atoms: _319  and  _322
REMARK  135  A    between atoms: _322  and  _323
REMARK  136  A    between atoms: _325  and  _327
REMARK  137  A    between atoms: _327  and  _328
REMARK  138  A    between atoms: _327  and  _330
REMARK  139  A    between atoms: _330  and  _331
REMARK  140  A    between atoms: _341  and  _343
REMARK  141  A    between atoms: _343  and  _344
REMARK  142  A    between atoms: _343  and  _346
REMARK  143  A    between atoms: _346  and  _347
REMARK  144  A    between atoms: _351  and  ZN_361
REMARK  145  A    between atoms: _352  and  _354
REMARK  146  A    between atoms: _354  and  _355
REMARK  147  A    between atoms: _354  and  _357
REMARK  148  A    between atoms: _357  and  _358
REMARK                            x       y       z     vdW  Elec       q    Type
REMARK                         _______ _______ _______ _____ _____    ______ ____
ROOT
ATOM      1  O   HOH     1     -34.385  -4.822  36.988  0.00  0.00    +0.000 OA
ENDROOT
TORSDOF 0
REMARK  Name = ../refined-set-2016/4fai/4fai_pocket.pdb
REMARK  148 active torsions:
REMARK  status: ('A' for Active; 'I' for Inactive)
REMARK    1  A    between atoms: _1  and  _3
REMARK    2  A    between atoms: _3  and  _4
REMARK    3  A    between atoms: _3  and  _6
REMARK    4  A    between atoms: _6  and  _7
REMARK    5  A    between atoms: _12  and  _14
REMARK    6  A    between atoms: _14  and  _15
REMARK    7  A    between atoms: _14  and  _17
REMARK    8  A    between atoms: _17  and  _18
REMARK    9  A    between atoms: _18  and  _19
REMARK   10  A    between atoms: _19  and  _20
REMARK   11  A    between atoms: _20  and  _21
REMARK   12  A    between atoms: _25  and  _27
REMARK   13  A    between atoms: _27  and  _28
REMARK   14  A    between atoms: _27  and  _30
REMARK   15  A    between atoms: _30  and  _31
REMARK   16  A    between atoms: _37  and  _39
REMARK   17  A    between atoms: _39  and  _40
REMARK   18  A    between atoms: _39  and  _42
REMARK   19  A    between atoms: _42  and  _43
REMARK   20  A    between atoms: _46  and  _48
REMARK   21  A    between atoms: _48  and  _49
REMARK   22  A    between atoms: _48  and  _51
REMARK   23  A    between atoms: _51  and  _52
REMARK   24  A    between atoms: _52  and  _54
REMARK   25  A    between atoms: _54  and  ZN_361
REMARK   26  A    between atoms: _55  and  _57
REMARK   27  A    between atoms: _57  and  _58
REMARK   28  A    between atoms: _57  and  _60
REMARK   29  A    between atoms: _60  and  _61
REMARK   30  A    between atoms: _63  and  _65
REMARK   31  A    between atoms: _65  and  _66
REMARK   32  A    between atoms: _65  and  _68
REMARK   33  A    between atoms: _68  and  _69
REMARK   34  A    between atoms: _69  and  _70
REMARK   35  A    between atoms: _73  and  _75
REMARK   36  A    between atoms: _75  and  _76
REMARK   37  A    between atoms: _75  and  _78
REMARK   38  A    between atoms: _78  and  _79
REMARK   39  A    between atoms: _79  and  _80
REMARK   40  A    between atoms: _80  and  _81
REMARK   41  A    between atoms: _81  and  ZN_361
REMARK   42  A    between atoms: _83  and  _85
REMARK   43  A    between atoms: _85  and  _86
REMARK   44  A    between atoms: _89  and  _91
REMARK   45  A    between atoms: _91  and  _92
REMARK   46  A    between atoms: _91  and  _94
REMARK   47  A    between atoms: _94  and  _95
REMARK   48  A    between atoms: _105  and  _107
REMARK   49  A    between atoms: _107  and  _108
REMARK   50  A    between atoms: _107  and  _110
REMARK   51  A    between atoms: _110  and  _111
REMARK   52  A    between atoms: _113  and  _115
REMARK   53  A    between atoms: _115  and  _116
REMARK   54  A    between atoms: _115  and  _118
REMARK   55  A    between atoms: _118  and  _119
REMARK   56  A    between atoms: _122  and  _124
REMARK   57  A    between atoms: _124  and  _125
REMARK   58  A    between atoms: _124  and  _127
REMARK   59  A    between atoms: _127  and  _128
REMARK   60  A    between atoms: _131  and  _133
REMARK   61  A    between atoms: _133  and  _134
REMARK   62  A    between atoms: _133  and  _136
REMARK   63  A    between atoms: _136  and  _137
REMARK   64  A    between atoms: _140  and  _142
REMARK   65  A    between atoms: _142  and  _143
REMARK   66  A    between atoms: _142  and  _145
REMARK   67  A    between atoms: _145  and  _146
REMARK   68  A    between atoms: _149  and  _151
REMARK   69  A    between atoms: _151  and  _152
REMARK   70  A    between atoms: _151  and  _154
REMARK   71  A    between atoms: _154  and  _155
REMARK   72  A    between atoms: _158  and  _160
REMARK   73  A    between atoms: _160  and  _161
REMARK   74  A    between atoms: _160  and  _163
REMARK   75  A    between atoms: _163  and  _164
REMARK   76  A    between atoms: _170  and  _172
REMARK   77  A    between atoms: _172  and  _173
REMARK   78  A    between atoms: _172  and  _175
REMARK   79  A    between atoms: _175  and  _176
REMARK   80  A    between atoms: _176  and  _177
REMARK   81  A    between atoms: _179  and  _181
REMARK   82  A    between atoms: _181  and  _182
REMARK   83  A    between atoms: _181  and  _184
REMARK   84  A    between atoms: _184  and  _185
REMARK   85  A    between atoms: _187  and  _189
REMARK   86  A    between atoms: _189  and  _190
REMARK   87  A    between atoms: _189  and  _192
REMARK   88  A    between atoms: _192  and  _193
REMARK   89  A    between atoms: _199  and  _201
REMARK   90  A    between atoms: _201  and  _202
REMARK   91  A    between atoms: _201  and  _204
REMARK   92  A    between atoms: _204  and  _205
REMARK   93  A    between atoms: _208  and  _210
REMARK   94  A    between atoms: _210  and  _211
REMARK   95  A    between atoms: _210  and  _213
REMARK   96  A    between atoms: _213  and  _214
REMARK   97  A    between atoms: _214  and  _215
REMARK   98  A    between atoms: _218  and  _220
REMARK   99  A    between atoms: _220  and  _221
REMARK  100  A    between atoms: _220  and  _223
REMARK  101  A    between atoms: _223  and  _224
REMARK  102  A    between atoms: _227  and  _229
REMARK  103  A    between atoms: _229  and  _230
REMARK  104  A    between atoms: _229  and  _232
REMARK  105  A    between atoms: _232  and  _233
REMARK  106  A    between atoms: _236  and  _238
REMARK  107  A    between atoms: _238  and  _239
REMARK  108  A    between atoms: _238  and  _241
REMARK  109  A    between atoms: _241  and  _242
REMARK  110  A    between atoms: _247  and  _249
REMARK  111  A    between atoms: _249  and  _250
REMARK  112  A    between atoms: _249  and  _252
REMARK  113  A    between atoms: _252  and  _253
REMARK  114  A    between atoms: _256  and  _258
REMARK  115  A    between atoms: _258  and  _259
REMARK  116  A    between atoms: _258  and  _261
REMARK  117  A    between atoms: _261  and  _262
REMARK  118  A    between atoms: _267  and  _269
REMARK  119  A    between atoms: _269  and  _270
REMARK  120  A    between atoms: _269  and  _272
REMARK  121  A    between atoms: _272  and  _273
REMARK  122  A    between atoms: _277  and  _278
REMARK  123  A    between atoms: _283  and  _285
REMARK  124  A    between atoms: _285  and  _286
REMARK  125  A    between atoms: _285  and  _288
REMARK  126  A    between atoms: _292  and  _293
REMARK  127  A    between atoms: _298  and  _300
REMARK  128  A    between atoms: _300  and  _301
REMARK  129  A    between atoms: _300  and  _303
REMARK  130  A    between atoms: _303  and  _304
REMARK  131  A    between atoms: _311  and  _312
REMARK  132  A    between atoms: _317  and  _319
REMARK  133  A    between atoms: _319  and  _320
REMARK  134  A    between atoms: _319  and  _322
REMARK  135  A    between atoms: _322  and  _323
REMARK  136  A    between atoms: _325  and  _327
REMARK  137  A    between atoms: _327  and  _328
REMARK  138  A    between atoms: _327  and  _330
REMARK  139  A    between atoms: _330  and  _331
REMARK  140  A    between atoms: _341  and  _343
REMARK  141  A    between atoms: _343  and  _344
REMARK  142  A    between atoms: _343  and  _346
REMARK  143  A    between atoms: _346  and  _347
REMARK  144  A    between atoms: _351  and  ZN_361
REMARK  145  A    between atoms: _352  and  _354
REMARK  146  A    between atoms: _354  and  _355
REMARK  147  A    between atoms: _354  and  _357
REMARK  148  A    between atoms: _357  and  _358
REMARK                            x       y       z     vdW  Elec       q    Type
REMARK                         _______ _______ _______ _____ _____    ______ ____
ROOT
ATOM      1  O   HOH     1     -25.003  -7.194  35.170  0.00  0.00    +0.000 OA
ENDROOT
TORSDOF 0
REMARK  Name = ../refined-set-2016/4fai/4fai_pocket.pdb
REMARK  148 active torsions:
REMARK  status: ('A' for Active; 'I' for Inactive)
REMARK    1  A    between atoms: _1  and  _3
REMARK    2  A    between atoms: _3  and  _4
REMARK    3  A    between atoms: _3  and  _6
REMARK    4  A    between atoms: _6  and  _7
REMARK    5  A    between atoms: _12  and  _14
REMARK    6  A    between atoms: _14  and  _15
REMARK    7  A    between atoms: _14  and  _17
REMARK    8  A    between atoms: _17  and  _18
REMARK    9  A    between atoms: _18  and  _19
REMARK   10  A    between atoms: _19  and  _20
REMARK   11  A    between atoms: _20  and  _21
REMARK   12  A    between atoms: _25  and  _27
REMARK   13  A    between atoms: _27  and  _28
REMARK   14  A    between atoms: _27  and  _30
REMARK   15  A    between atoms: _30  and  _31
REMARK   16  A    between atoms: _37  and  _39
REMARK   17  A    between atoms: _39  and  _40
REMARK   18  A    between atoms: _39  and  _42
REMARK   19  A    between atoms: _42  and  _43
REMARK   20  A    between atoms: _46  and  _48
REMARK   21  A    between atoms: _48  and  _49
REMARK   22  A    between atoms: _48  and  _51
REMARK   23  A    between atoms: _51  and  _52
REMARK   24  A    between atoms: _52  and  _54
REMARK   25  A    between atoms: _54  and  ZN_361
REMARK   26  A    between atoms: _55  and  _57
REMARK   27  A    between atoms: _57  and  _58
REMARK   28  A    between atoms: _57  and  _60
REMARK   29  A    between atoms: _60  and  _61
REMARK   30  A    between atoms: _63  and  _65
REMARK   31  A    between atoms: _65  and  _66
REMARK   32  A    between atoms: _65  and  _68
REMARK   33  A    between atoms: _68  and  _69
REMARK   34  A    between atoms: _69  and  _70
REMARK   35  A    between atoms: _73  and  _75
REMARK   36  A    between atoms: _75  and  _76
REMARK   37  A    between atoms: _75  and  _78
REMARK   38  A    between atoms: _78  and  _79
REMARK   39  A    between atoms: _79  and  _80
REMARK   40  A    between atoms: _80  and  _81
REMARK   41  A    between atoms: _81  and  ZN_361
REMARK   42  A    between atoms: _83  and  _85
REMARK   43  A    between atoms: _85  and  _86
REMARK   44  A    between atoms: _89  and  _91
REMARK   45  A    between atoms: _91  and  _92
REMARK   46  A    between atoms: _91  and  _94
REMARK   47  A    between atoms: _94  and  _95
REMARK   48  A    between atoms: _105  and  _107
REMARK   49  A    between atoms: _107  and  _108
REMARK   50  A    between atoms: _107  and  _110
REMARK   51  A    between atoms: _110  and  _111
REMARK   52  A    between atoms: _113  and  _115
REMARK   53  A    between atoms: _115  and  _116
REMARK   54  A    between atoms: _115  and  _118
REMARK   55  A    between atoms: _118  and  _119
REMARK   56  A    between atoms: _122  and  _124
REMARK   57  A    between atoms: _124  and  _125
REMARK   58  A    between atoms: _124  and  _127
REMARK   59  A    between atoms: _127  and  _128
REMARK   60  A    between atoms: _131  and  _133
REMARK   61  A    between atoms: _133  and  _134
REMARK   62  A    between atoms: _133  and  _136
REMARK   63  A    between atoms: _136  and  _137
REMARK   64  A    between atoms: _140  and  _142
REMARK   65  A    between atoms: _142  and  _143
REMARK   66  A    between atoms: _142  and  _145
REMARK   67  A    between atoms: _145  and  _146
REMARK   68  A    between atoms: _149  and  _151
REMARK   69  A    between atoms: _151  and  _152
REMARK   70  A    between atoms: _151  and  _154
REMARK   71  A    between atoms: _154  and  _155
REMARK   72  A    between atoms: _158  and  _160
REMARK   73  A    between atoms: _160  and  _161
REMARK   74  A    between atoms: _160  and  _163
REMARK   75  A    between atoms: _163  and  _164
REMARK   76  A    between atoms: _170  and  _172
REMARK   77  A    between atoms: _172  and  _173
REMARK   78  A    between atoms: _172  and  _175
REMARK   79  A    between atoms: _175  and  _176
REMARK   80  A    between atoms: _176  and  _177
REMARK   81  A    between atoms: _179  and  _181
REMARK   82  A    between atoms: _181  and  _182
REMARK   83  A    between atoms: _181  and  _184
REMARK   84  A    between atoms: _184  and  _185
REMARK   85  A    between atoms: _187  and  _189
REMARK   86  A    between atoms: _189  and  _190
REMARK   87  A    between atoms: _189  and  _192
REMARK   88  A    between atoms: _192  and  _193
REMARK   89  A    between atoms: _199  and  _201
REMARK   90  A    between atoms: _201  and  _202
REMARK   91  A    between atoms: _201  and  _204
REMARK   92  A    between atoms: _204  and  _205
REMARK   93  A    between atoms: _208  and  _210
REMARK   94  A    between atoms: _210  and  _211
REMARK   95  A    between atoms: _210  and  _213
REMARK   96  A    between atoms: _213  and  _214
REMARK   97  A    between atoms: _214  and  _215
REMARK   98  A    between atoms: _218  and  _220
REMARK   99  A    between atoms: _220  and  _221
REMARK  100  A    between atoms: _220  and  _223
REMARK  101  A    between atoms: _223  and  _224
REMARK  102  A    between atoms: _227  and  _229
REMARK  103  A    between atoms: _229  and  _230
REMARK  104  A    between atoms: _229  and  _232
REMARK  105  A    between atoms: _232  and  _233
REMARK  106  A    between atoms: _236  and  _238
REMARK  107  A    between atoms: _238  and  _239
REMARK  108  A    between atoms: _238  and  _241
REMARK  109  A    between atoms: _241  and  _242
REMARK  110  A    between atoms: _247  and  _249
REMARK  111  A    between atoms: _249  and  _250
REMARK  112  A    between atoms: _249  and  _252
REMARK  113  A    between atoms: _252  and  _253
REMARK  114  A    between atoms: _256  and  _258
REMARK  115  A    between atoms: _258  and  _259
REMARK  116  A    between atoms: _258  and  _261
REMARK  117  A    between atoms: _261  and  _262
REMARK  118  A    between atoms: _267  and  _269
REMARK  119  A    between atoms: _269  and  _270
REMARK  120  A    between atoms: _269  and  _272
REMARK  121  A    between atoms: _272  and  _273
REMARK  122  A    between atoms: _277  and  _278
REMARK  123  A    between atoms: _283  and  _285
REMARK  124  A    between atoms: _285  and  _286
REMARK  125  A    between atoms: _285  and  _288
REMARK  126  A    between atoms: _292  and  _293
REMARK  127  A    between atoms: _298  and  _300
REMARK  128  A    between atoms: _300  and  _301
REMARK  129  A    between atoms: _300  and  _303
REMARK  130  A    between atoms: _303  and  _304
REMARK  131  A    between atoms: _311  and  _312
REMARK  132  A    between atoms: _317  and  _319
REMARK  133  A    between atoms: _319  and  _320
REMARK  134  A    between atoms: _319  and  _322
REMARK  135  A    between atoms: _322  and  _323
REMARK  136  A    between atoms: _325  and  _327
REMARK  137  A    between atoms: _327  and  _328
REMARK  138  A    between atoms: _327  and  _330
REMARK  139  A    between atoms: _330  and  _331
REMARK  140  A    between atoms: _341  and  _343
REMARK  141  A    between atoms: _343  and  _344
REMARK  142  A    between atoms: _343  and  _346
REMARK  143  A    between atoms: _346  and  _347
REMARK  144  A    between atoms: _351  and  ZN_361
REMARK  145  A    between atoms: _352  and  _354
REMARK  146  A    between atoms: _354  and  _355
REMARK  147  A    between atoms: _354  and  _357
REMARK  148  A    between atoms: _357  and  _358
REMARK                            x       y       z     vdW  Elec       q    Type
REMARK                         _______ _______ _______ _____ _____    ______ ____
ROOT
ATOM      1  O   HOH     1     -33.488 -11.322  41.795  0.00  0.00    +0.000 OA
ENDROOT
TORSDOF 0
REMARK  Name = ../refined-set-2016/4fai/4fai_pocket.pdb
REMARK  148 active torsions:
REMARK  status: ('A' for Active; 'I' for Inactive)
REMARK    1  A    between atoms: _1  and  _3
REMARK    2  A    between atoms: _3  and  _4
REMARK    3  A    between atoms: _3  and  _6
REMARK    4  A    between atoms: _6  and  _7
REMARK    5  A    between atoms: _12  and  _14
REMARK    6  A    between atoms: _14  and  _15
REMARK    7  A    between atoms: _14  and  _17
REMARK    8  A    between atoms: _17  and  _18
REMARK    9  A    between atoms: _18  and  _19
REMARK   10  A    between atoms: _19  and  _20
REMARK   11  A    between atoms: _20  and  _21
REMARK   12  A    between atoms: _25  and  _27
REMARK   13  A    between atoms: _27  and  _28
REMARK   14  A    between atoms: _27  and  _30
REMARK   15  A    between atoms: _30  and  _31
REMARK   16  A    between atoms: _37  and  _39
REMARK   17  A    between atoms: _39  and  _40
REMARK   18  A    between atoms: _39  and  _42
REMARK   19  A    between atoms: _42  and  _43
REMARK   20  A    between atoms: _46  and  _48
REMARK   21  A    between atoms: _48  and  _49
REMARK   22  A    between atoms: _48  and  _51
REMARK   23  A    between atoms: _51  and  _52
REMARK   24  A    between atoms: _52  and  _54
REMARK   25  A    between atoms: _54  and  ZN_361
REMARK   26  A    between atoms: _55  and  _57
REMARK   27  A    between atoms: _57  and  _58
REMARK   28  A    between atoms: _57  and  _60
REMARK   29  A    between atoms: _60  and  _61
REMARK   30  A    between atoms: _63  and  _65
REMARK   31  A    between atoms: _65  and  _66
REMARK   32  A    between atoms: _65  and  _68
REMARK   33  A    between atoms: _68  and  _69
REMARK   34  A    between atoms: _69  and  _70
REMARK   35  A    between atoms: _73  and  _75
REMARK   36  A    between atoms: _75  and  _76
REMARK   37  A    between atoms: _75  and  _78
REMARK   38  A    between atoms: _78  and  _79
REMARK   39  A    between atoms: _79  and  _80
REMARK   40  A    between atoms: _80  and  _81
REMARK   41  A    between atoms: _81  and  ZN_361
REMARK   42  A    between atoms: _83  and  _85
REMARK   43  A    between atoms: _85  and  _86
REMARK   44  A    between atoms: _89  and  _91
REMARK   45  A    between atoms: _91  and  _92
REMARK   46  A    between atoms: _91  and  _94
REMARK   47  A    between atoms: _94  and  _95
REMARK   48  A    between atoms: _105  and  _107
REMARK   49  A    between atoms: _107  and  _108
REMARK   50  A    between atoms: _107  and  _110
REMARK   51  A    between atoms: _110  and  _111
REMARK   52  A    between atoms: _113  and  _115
REMARK   53  A    between atoms: _115  and  _116
REMARK   54  A    between atoms: _115  and  _118
REMARK   55  A    between atoms: _118  and  _119
REMARK   56  A    between atoms: _122  and  _124
REMARK   57  A    between atoms: _124  and  _125
REMARK   58  A    between atoms: _124  and  _127
REMARK   59  A    between atoms: _127  and  _128
REMARK   60  A    between atoms: _131  and  _133
REMARK   61  A    between atoms: _133  and  _134
REMARK   62  A    between atoms: _133  and  _136
REMARK   63  A    between atoms: _136  and  _137
REMARK   64  A    between atoms: _140  and  _142
REMARK   65  A    between atoms: _142  and  _143
REMARK   66  A    between atoms: _142  and  _145
REMARK   67  A    between atoms: _145  and  _146
REMARK   68  A    between atoms: _149  and  _151
REMARK   69  A    between atoms: _151  and  _152
REMARK   70  A    between atoms: _151  and  _154
REMARK   71  A    between atoms: _154  and  _155
REMARK   72  A    between atoms: _158  and  _160
REMARK   73  A    between atoms: _160  and  _161
REMARK   74  A    between atoms: _160  and  _163
REMARK   75  A    between atoms: _163  and  _164
REMARK   76  A    between atoms: _170  and  _172
REMARK   77  A    between atoms: _172  and  _173
REMARK   78  A    between atoms: _172  and  _175
REMARK   79  A    between atoms: _175  and  _176
REMARK   80  A    between atoms: _176  and  _177
REMARK   81  A    between atoms: _179  and  _181
REMARK   82  A    between atoms: _181  and  _182
REMARK   83  A    between atoms: _181  and  _184
REMARK   84  A    between atoms: _184  and  _185
REMARK   85  A    between atoms: _187  and  _189
REMARK   86  A    between atoms: _189  and  _190
REMARK   87  A    between atoms: _189  and  _192
REMARK   88  A    between atoms: _192  and  _193
REMARK   89  A    between atoms: _199  and  _201
REMARK   90  A    between atoms: _201  and  _202
REMARK   91  A    between atoms: _201  and  _204
REMARK   92  A    between atoms: _204  and  _205
REMARK   93  A    between atoms: _208  and  _210
REMARK   94  A    between atoms: _210  and  _211
REMARK   95  A    between atoms: _210  and  _213
REMARK   96  A    between atoms: _213  and  _214
REMARK   97  A    between atoms: _214  and  _215
REMARK   98  A    between atoms: _218  and  _220
REMARK   99  A    between atoms: _220  and  _221
REMARK  100  A    between atoms: _220  and  _223
REMARK  101  A    between atoms: _223  and  _224
REMARK  102  A    between atoms: _227  and  _229
REMARK  103  A    between atoms: _229  and  _230
REMARK  104  A    between atoms: _229  and  _232
REMARK  105  A    between atoms: _232  and  _233
REMARK  106  A    between atoms: _236  and  _238
REMARK  107  A    between atoms: _238  and  _239
REMARK  108  A    between atoms: _238  and  _241
REMARK  109  A    between atoms: _241  and  _242
REMARK  110  A    between atoms: _247  and  _249
REMARK  111  A    between atoms: _249  and  _250
REMARK  112  A    between atoms: _249  and  _252
REMARK  113  A    between atoms: _252  and  _253
REMARK  114  A    between atoms: _256  and  _258
REMARK  115  A    between atoms: _258  and  _259
REMARK  116  A    between atoms: _258  and  _261
REMARK  117  A    between atoms: _261  and  _262
REMARK  118  A    between atoms: _267  and  _269
REMARK  119  A    between atoms: _269  and  _270
REMARK  120  A    between atoms: _269  and  _272
REMARK  121  A    between atoms: _272  and  _273
REMARK  122  A    between atoms: _277  and  _278
REMARK  123  A    between atoms: _283  and  _285
REMARK  124  A    between atoms: _285  and  _286
REMARK  125  A    between atoms: _285  and  _288
REMARK  126  A    between atoms: _292  and  _293
REMARK  127  A    between atoms: _298  and  _300
REMARK  128  A    between atoms: _300  and  _301
REMARK  129  A    between atoms: _300  and  _303
REMARK  130  A    between atoms: _303  and  _304
REMARK  131  A    between atoms: _311  and  _312
REMARK  132  A    between atoms: _317  and  _319
REMARK  133  A    between atoms: _319  and  _320
REMARK  134  A    between atoms: _319  and  _322
REMARK  135  A    between atoms: _322  and  _323
REMARK  136  A    between atoms: _325  and  _327
REMARK  137  A    between atoms: _327  and  _328
REMARK  138  A    between atoms: _327  and  _330
REMARK  139  A    between atoms: _330  and  _331
REMARK  140  A    between atoms: _341  and  _343
REMARK  141  A    between atoms: _343  and  _344
REMARK  142  A    between atoms: _343  and  _346
REMARK  143  A    between atoms: _346  and  _347
REMARK  144  A    between atoms: _351  and  ZN_361
REMARK  145  A    between atoms: _352  and  _354
REMARK  146  A    between atoms: _354  and  _355
REMARK  147  A    between atoms: _354  and  _357
REMARK  148  A    between atoms: _357  and  _358
REMARK                            x       y       z     vdW  Elec       q    Type
REMARK                         _______ _______ _______ _____ _____    ______ ____
ROOT
ATOM      1  O   HOH     1     -27.359   3.948  36.707  0.00  0.00    +0.000 OA
ENDROOT
TORSDOF 0
REMARK  Name = ../refined-set-2016/4fai/4fai_pocket.pdb
REMARK  148 active torsions:
REMARK  status: ('A' for Active; 'I' for Inactive)
REMARK    1  A    between atoms: _1  and  _3
REMARK    2  A    between atoms: _3  and  _4
REMARK    3  A    between atoms: _3  and  _6
REMARK    4  A    between atoms: _6  and  _7
REMARK    5  A    between atoms: _12  and  _14
REMARK    6  A    between atoms: _14  and  _15
REMARK    7  A    between atoms: _14  and  _17
REMARK    8  A    between atoms: _17  and  _18
REMARK    9  A    between atoms: _18  and  _19
REMARK   10  A    between atoms: _19  and  _20
REMARK   11  A    between atoms: _20  and  _21
REMARK   12  A    between atoms: _25  and  _27
REMARK   13  A    between atoms: _27  and  _28
REMARK   14  A    between atoms: _27  and  _30
REMARK   15  A    between atoms: _30  and  _31
REMARK   16  A    between atoms: _37  and  _39
REMARK   17  A    between atoms: _39  and  _40
REMARK   18  A    between atoms: _39  and  _42
REMARK   19  A    between atoms: _42  and  _43
REMARK   20  A    between atoms: _46  and  _48
REMARK   21  A    between atoms: _48  and  _49
REMARK   22  A    between atoms: _48  and  _51
REMARK   23  A    between atoms: _51  and  _52
REMARK   24  A    between atoms: _52  and  _54
REMARK   25  A    between atoms: _54  and  ZN_361
REMARK   26  A    between atoms: _55  and  _57
REMARK   27  A    between atoms: _57  and  _58
REMARK   28  A    between atoms: _57  and  _60
REMARK   29  A    between atoms: _60  and  _61
REMARK   30  A    between atoms: _63  and  _65
REMARK   31  A    between atoms: _65  and  _66
REMARK   32  A    between atoms: _65  and  _68
REMARK   33  A    between atoms: _68  and  _69
REMARK   34  A    between atoms: _69  and  _70
REMARK   35  A    between atoms: _73  and  _75
REMARK   36  A    between atoms: _75  and  _76
REMARK   37  A    between atoms: _75  and  _78
REMARK   38  A    between atoms: _78  and  _79
REMARK   39  A    between atoms: _79  and  _80
REMARK   40  A    between atoms: _80  and  _81
REMARK   41  A    between atoms: _81  and  ZN_361
REMARK   42  A    between atoms: _83  and  _85
REMARK   43  A    between atoms: _85  and  _86
REMARK   44  A    between atoms: _89  and  _91
REMARK   45  A    between atoms: _91  and  _92
REMARK   46  A    between atoms: _91  and  _94
REMARK   47  A    between atoms: _94  and  _95
REMARK   48  A    between atoms: _105  and  _107
REMARK   49  A    between atoms: _107  and  _108
REMARK   50  A    between atoms: _107  and  _110
REMARK   51  A    between atoms: _110  and  _111
REMARK   52  A    between atoms: _113  and  _115
REMARK   53  A    between atoms: _115  and  _116
REMARK   54  A    between atoms: _115  and  _118
REMARK   55  A    between atoms: _118  and  _119
REMARK   56  A    between atoms: _122  and  _124
REMARK   57  A    between atoms: _124  and  _125
REMARK   58  A    between atoms: _124  and  _127
REMARK   59  A    between atoms: _127  and  _128
REMARK   60  A    between atoms: _131  and  _133
REMARK   61  A    between atoms: _133  and  _134
REMARK   62  A    between atoms: _133  and  _136
REMARK   63  A    between atoms: _136  and  _137
REMARK   64  A    between atoms: _140  and  _142
REMARK   65  A    between atoms: _142  and  _143
REMARK   66  A    between atoms: _142  and  _145
REMARK   67  A    between atoms: _145  and  _146
REMARK   68  A    between atoms: _149  and  _151
REMARK   69  A    between atoms: _151  and  _152
REMARK   70  A    between atoms: _151  and  _154
REMARK   71  A    between atoms: _154  and  _155
REMARK   72  A    between atoms: _158  and  _160
REMARK   73  A    between atoms: _160  and  _161
REMARK   74  A    between atoms: _160  and  _163
REMARK   75  A    between atoms: _163  and  _164
REMARK   76  A    between atoms: _170  and  _172
REMARK   77  A    between atoms: _172  and  _173
REMARK   78  A    between atoms: _172  and  _175
REMARK   79  A    between atoms: _175  and  _176
REMARK   80  A    between atoms: _176  and  _177
REMARK   81  A    between atoms: _179  and  _181
REMARK   82  A    between atoms: _181  and  _182
REMARK   83  A    between atoms: _181  and  _184
REMARK   84  A    between atoms: _184  and  _185
REMARK   85  A    between atoms: _187  and  _189
REMARK   86  A    between atoms: _189  and  _190
REMARK   87  A    between atoms: _189  and  _192
REMARK   88  A    between atoms: _192  and  _193
REMARK   89  A    between atoms: _199  and  _201
REMARK   90  A    between atoms: _201  and  _202
REMARK   91  A    between atoms: _201  and  _204
REMARK   92  A    between atoms: _204  and  _205
REMARK   93  A    between atoms: _208  and  _210
REMARK   94  A    between atoms: _210  and  _211
REMARK   95  A    between atoms: _210  and  _213
REMARK   96  A    between atoms: _213  and  _214
REMARK   97  A    between atoms: _214  and  _215
REMARK   98  A    between atoms: _218  and  _220
REMARK   99  A    between atoms: _220  and  _221
REMARK  100  A    between atoms: _220  and  _223
REMARK  101  A    between atoms: _223  and  _224
REMARK  102  A    between atoms: _227  and  _229
REMARK  103  A    between atoms: _229  and  _230
REMARK  104  A    between atoms: _229  and  _232
REMARK  105  A    between atoms: _232  and  _233
REMARK  106  A    between atoms: _236  and  _238
REMARK  107  A    between atoms: _238  and  _239
REMARK  108  A    between atoms: _238  and  _241
REMARK  109  A    between atoms: _241  and  _242
REMARK  110  A    between atoms: _247  and  _249
REMARK  111  A    between atoms: _249  and  _250
REMARK  112  A    between atoms: _249  and  _252
REMARK  113  A    between atoms: _252  and  _253
REMARK  114  A    between atoms: _256  and  _258
REMARK  115  A    between atoms: _258  and  _259
REMARK  116  A    between atoms: _258  and  _261
REMARK  117  A    between atoms: _261  and  _262
REMARK  118  A    between atoms: _267  and  _269
REMARK  119  A    between atoms: _269  and  _270
REMARK  120  A    between atoms: _269  and  _272
REMARK  121  A    between atoms: _272  and  _273
REMARK  122  A    between atoms: _277  and  _278
REMARK  123  A    between atoms: _283  and  _285
REMARK  124  A    between atoms: _285  and  _286
REMARK  125  A    between atoms: _285  and  _288
REMARK  126  A    between atoms: _292  and  _293
REMARK  127  A    between atoms: _298  and  _300
REMARK  128  A    between atoms: _300  and  _301
REMARK  129  A    between atoms: _300  and  _303
REMARK  130  A    between atoms: _303  and  _304
REMARK  131  A    between atoms: _311  and  _312
REMARK  132  A    between atoms: _317  and  _319
REMARK  133  A    between atoms: _319  and  _320
REMARK  134  A    between atoms: _319  and  _322
REMARK  135  A    between atoms: _322  and  _323
REMARK  136  A    between atoms: _325  and  _327
REMARK  137  A    between atoms: _327  and  _328
REMARK  138  A    between atoms: _327  and  _330
REMARK  139  A    between atoms: _330  and  _331
REMARK  140  A    between atoms: _341  and  _343
REMARK  141  A    between atoms: _343  and  _344
REMARK  142  A    between atoms: _343  and  _346
REMARK  143  A    between atoms: _346  and  _347
REMARK  144  A    between atoms: _351  and  ZN_361
REMARK  145  A    between atoms: _352  and  _354
REMARK  146  A    between atoms: _354  and  _355
REMARK  147  A    between atoms: _354  and  _357
REMARK  148  A    between atoms: _357  and  _358
REMARK                            x       y       z     vdW  Elec       q    Type
REMARK                         _______ _______ _______ _____ _____    ______ ____
ROOT
ATOM      1  O   HOH     1     -33.516 -12.114  48.803  0.00  0.00    +0.000 OA
ENDROOT
TORSDOF 0
