REMARK  Name = ../refined-set-2016/4ufl/4ufl_pocket.pdb
REMARK  130 active torsions:
REMARK  status: ('A' for Active; 'I' for Inactive)
REMARK    1  A    between atoms: _1  and  _3
REMARK    2  A    between atoms: _3  and  _4
REMARK    3  A    between atoms: _3  and  _6
REMARK    4  A    between atoms: _9  and  _11
REMARK    5  A    between atoms: _11  and  _12
REMARK    6  A    between atoms: _14  and  _16
REMARK    7  A    between atoms: _16  and  _17
REMARK    8  A    between atoms: _19  and  _21
REMARK    9  A    between atoms: _21  and  _22
REMARK   10  A    between atoms: _24  and  _26
REMARK   11  A    between atoms: _26  and  _27
REMARK   12  A    between atoms: _26  and  _29
REMARK   13  A    between atoms: _29  and  _30
REMARK   14  A    between atoms: _33  and  _35
REMARK   15  A    between atoms: _35  and  _36
REMARK   16  A    between atoms: _35  and  _38
REMARK   17  A    between atoms: _38  and  _39
REMARK   18  A    between atoms: _39  and  _40
REMARK   19  A    between atoms: _40  and  _41
REMARK   20  A    between atoms: _41  and  _42
REMARK   21  A    between atoms: _46  and  _48
REMARK   22  A    between atoms: _48  and  _49
REMARK   23  A    between atoms: _48  and  _51
REMARK   24  A    between atoms: _51  and  _52
REMARK   25  A    between atoms: _52  and  _53
REMARK   26  A    between atoms: _56  and  _58
REMARK   27  A    between atoms: _58  and  _59
REMARK   28  A    between atoms: _58  and  _61
REMARK   29  A    between atoms: _61  and  _62
REMARK   30  A    between atoms: _65  and  _67
REMARK   31  A    between atoms: _67  and  _68
REMARK   32  A    between atoms: _67  and  _70
REMARK   33  A    between atoms: _70  and  _71
REMARK   34  A    between atoms: _74  and  _76
REMARK   35  A    between atoms: _76  and  _77
REMARK   36  A    between atoms: _76  and  _79
REMARK   37  A    between atoms: _79  and  _80
REMARK   38  A    between atoms: _83  and  _85
REMARK   39  A    between atoms: _85  and  _86
REMARK   40  A    between atoms: _85  and  _88
REMARK   41  A    between atoms: _88  and  _89
REMARK   42  A    between atoms: _92  and  _94
REMARK   43  A    between atoms: _94  and  _95
REMARK   44  A    between atoms: _94  and  _97
REMARK   45  A    between atoms: _97  and  _98
REMARK   46  A    between atoms: _108  and  _110
REMARK   47  A    between atoms: _110  and  _111
REMARK   48  A    between atoms: _110  and  _113
REMARK   49  A    between atoms: _113  and  _114
REMARK   50  A    between atoms: _119  and  _121
REMARK   51  A    between atoms: _121  and  _122
REMARK   52  A    between atoms: _121  and  _124
REMARK   53  A    between atoms: _124  and  _125
REMARK   54  A    between atoms: _125  and  _126
REMARK   55  A    between atoms: _129  and  _131
REMARK   56  A    between atoms: _131  and  _132
REMARK   57  A    between atoms: _131  and  _134
REMARK   58  A    between atoms: _134  and  _135
REMARK   59  A    between atoms: _135  and  _136
REMARK   60  A    between atoms: _136  and  _137
REMARK   61  A    between atoms: _146  and  _148
REMARK   62  A    between atoms: _148  and  _149
REMARK   63  A    between atoms: _148  and  _151
REMARK   64  A    between atoms: _151  and  _152
REMARK   65  A    between atoms: _155  and  _157
REMARK   66  A    between atoms: _157  and  _158
REMARK   67  A    between atoms: _157  and  _160
REMARK   68  A    between atoms: _160  and  _161
REMARK   69  A    between atoms: _166  and  _168
REMARK   70  A    between atoms: _168  and  _169
REMARK   71  A    between atoms: _168  and  _171
REMARK   72  A    between atoms: _171  and  _172
REMARK   73  A    between atoms: _177  and  _178
REMARK   74  A    between atoms: _180  and  _182
REMARK   75  A    between atoms: _182  and  _183
REMARK   76  A    between atoms: _182  and  _185
REMARK   77  A    between atoms: _185  and  _186
REMARK   78  A    between atoms: _186  and  _187
REMARK   79  A    between atoms: _190  and  _192
REMARK   80  A    between atoms: _192  and  _193
REMARK   81  A    between atoms: _192  and  _195
REMARK   82  A    between atoms: _195  and  _196
REMARK   83  A    between atoms: _199  and  _201
REMARK   84  A    between atoms: _201  and  _202
REMARK   85  A    between atoms: _201  and  _204
REMARK   86  A    between atoms: _204  and  _205
REMARK   87  A    between atoms: _211  and  _213
REMARK   88  A    between atoms: _213  and  _214
REMARK   89  A    between atoms: _213  and  _216
REMARK   90  A    between atoms: _216  and  _217
REMARK   91  A    between atoms: _219  and  _221
REMARK   92  A    between atoms: _221  and  _222
REMARK   93  A    between atoms: _221  and  _224
REMARK   94  A    between atoms: _224  and  _225
REMARK   95  A    between atoms: _228  and  _230
REMARK   96  A    between atoms: _230  and  _231
REMARK   97  A    between atoms: _230  and  _233
REMARK   98  A    between atoms: _233  and  _234
REMARK   99  A    between atoms: _244  and  _246
REMARK  100  A    between atoms: _246  and  _247
REMARK  101  A    between atoms: _246  and  _249
REMARK  102  A    between atoms: _249  and  _250
REMARK  103  A    between atoms: _256  and  _257
REMARK  104  A    between atoms: _262  and  _264
REMARK  105  A    between atoms: _264  and  _265
REMARK  106  A    between atoms: _264  and  _267
REMARK  107  A    between atoms: _267  and  _268
REMARK  108  A    between atoms: _273  and  _274
REMARK  109  A    between atoms: _276  and  _278
REMARK  110  A    between atoms: _278  and  _279
REMARK  111  A    between atoms: _278  and  _281
REMARK  112  A    between atoms: _281  and  _282
REMARK  113  A    between atoms: _284  and  _286
REMARK  114  A    between atoms: _286  and  _287
REMARK  115  A    between atoms: _286  and  _289
REMARK  116  A    between atoms: _289  and  _290
REMARK  117  A    between atoms: _293  and  _295
REMARK  118  A    between atoms: _295  and  _296
REMARK  119  A    between atoms: _295  and  _298
REMARK  120  A    between atoms: _298  and  _299
REMARK  121  A    between atoms: _299  and  _300
REMARK  122  A    between atoms: _300  and  _301
REMARK  123  A    between atoms: _310  and  _312
REMARK  124  A    between atoms: _312  and  _313
REMARK  125  A    between atoms: _312  and  _315
REMARK  126  A    between atoms: _315  and  _316
REMARK  127  A    between atoms: _326  and  _328
REMARK  128  A    between atoms: _328  and  _329
REMARK  129  A    between atoms: _328  and  _331
REMARK  130  A    between atoms: _331  and  _332
REMARK                            x       y       z     vdW  Elec       q    Type
REMARK                         _______ _______ _______ _____ _____    ______ ____
ROOT
ATOM      1  CA  VAL A   1      79.056  98.174  22.180  0.00  0.00    +0.133 C 
ENDROOT
BRANCH   1   2
ATOM      2  CB  VAL A   1      78.417  96.929  21.544  0.00  0.00    +0.023 C 
ATOM      3  CG2 VAL A   1      77.475  96.245  22.536  0.00  0.00    +0.002 C 
ATOM      4  CG1 VAL A   1      77.684  97.294  20.260  0.00  0.00    +0.002 C 
ENDBRANCH   1   2
BRANCH   1   5
ATOM      5  N   VAL A   1      79.962  98.835  21.262  0.00  0.00    -0.239 NA
ATOM      6  H   VAL A   1      80.668  98.269  20.749  0.00  0.00    +0.142 HD
ENDBRANCH   1   5
BRANCH   1   7
ATOM      7  C   VAL A   1      79.757  97.749  23.461  0.00  0.00    +0.224 C 
ATOM      8  O   VAL A   1      80.803  97.099  23.421  0.00  0.00    -0.287 OA
ENDBRANCH   1   7
TORSDOF 3
REMARK  Name = ../refined-set-2016/4ufl/4ufl_pocket.pdb
REMARK  130 active torsions:
REMARK  status: ('A' for Active; 'I' for Inactive)
REMARK    1  A    between atoms: _1  and  _3
REMARK    2  A    between atoms: _3  and  _4
REMARK    3  A    between atoms: _3  and  _6
REMARK    4  A    between atoms: _9  and  _11
REMARK    5  A    between atoms: _11  and  _12
REMARK    6  A    between atoms: _14  and  _16
REMARK    7  A    between atoms: _16  and  _17
REMARK    8  A    between atoms: _19  and  _21
REMARK    9  A    between atoms: _21  and  _22
REMARK   10  A    between atoms: _24  and  _26
REMARK   11  A    between atoms: _26  and  _27
REMARK   12  A    between atoms: _26  and  _29
REMARK   13  A    between atoms: _29  and  _30
REMARK   14  A    between atoms: _33  and  _35
REMARK   15  A    between atoms: _35  and  _36
REMARK   16  A    between atoms: _35  and  _38
REMARK   17  A    between atoms: _38  and  _39
REMARK   18  A    between atoms: _39  and  _40
REMARK   19  A    between atoms: _40  and  _41
REMARK   20  A    between atoms: _41  and  _42
REMARK   21  A    between atoms: _46  and  _48
REMARK   22  A    between atoms: _48  and  _49
REMARK   23  A    between atoms: _48  and  _51
REMARK   24  A    between atoms: _51  and  _52
REMARK   25  A    between atoms: _52  and  _53
REMARK   26  A    between atoms: _56  and  _58
REMARK   27  A    between atoms: _58  and  _59
REMARK   28  A    between atoms: _58  and  _61
REMARK   29  A    between atoms: _61  and  _62
REMARK   30  A    between atoms: _65  and  _67
REMARK   31  A    between atoms: _67  and  _68
REMARK   32  A    between atoms: _67  and  _70
REMARK   33  A    between atoms: _70  and  _71
REMARK   34  A    between atoms: _74  and  _76
REMARK   35  A    between atoms: _76  and  _77
REMARK   36  A    between atoms: _76  and  _79
REMARK   37  A    between atoms: _79  and  _80
REMARK   38  A    between atoms: _83  and  _85
REMARK   39  A    between atoms: _85  and  _86
REMARK   40  A    between atoms: _85  and  _88
REMARK   41  A    between atoms: _88  and  _89
REMARK   42  A    between atoms: _92  and  _94
REMARK   43  A    between atoms: _94  and  _95
REMARK   44  A    between atoms: _94  and  _97
REMARK   45  A    between atoms: _97  and  _98
REMARK   46  A    between atoms: _108  and  _110
REMARK   47  A    between atoms: _110  and  _111
REMARK   48  A    between atoms: _110  and  _113
REMARK   49  A    between atoms: _113  and  _114
REMARK   50  A    between atoms: _119  and  _121
REMARK   51  A    between atoms: _121  and  _122
REMARK   52  A    between atoms: _121  and  _124
REMARK   53  A    between atoms: _124  and  _125
REMARK   54  A    between atoms: _125  and  _126
REMARK   55  A    between atoms: _129  and  _131
REMARK   56  A    between atoms: _131  and  _132
REMARK   57  A    between atoms: _131  and  _134
REMARK   58  A    between atoms: _134  and  _135
REMARK   59  A    between atoms: _135  and  _136
REMARK   60  A    between atoms: _136  and  _137
REMARK   61  A    between atoms: _146  and  _148
REMARK   62  A    between atoms: _148  and  _149
REMARK   63  A    between atoms: _148  and  _151
REMARK   64  A    between atoms: _151  and  _152
REMARK   65  A    between atoms: _155  and  _157
REMARK   66  A    between atoms: _157  and  _158
REMARK   67  A    between atoms: _157  and  _160
REMARK   68  A    between atoms: _160  and  _161
REMARK   69  A    between atoms: _166  and  _168
REMARK   70  A    between atoms: _168  and  _169
REMARK   71  A    between atoms: _168  and  _171
REMARK   72  A    between atoms: _171  and  _172
REMARK   73  A    between atoms: _177  and  _178
REMARK   74  A    between atoms: _180  and  _182
REMARK   75  A    between atoms: _182  and  _183
REMARK   76  A    between atoms: _182  and  _185
REMARK   77  A    between atoms: _185  and  _186
REMARK   78  A    between atoms: _186  and  _187
REMARK   79  A    between atoms: _190  and  _192
REMARK   80  A    between atoms: _192  and  _193
REMARK   81  A    between atoms: _192  and  _195
REMARK   82  A    between atoms: _195  and  _196
REMARK   83  A    between atoms: _199  and  _201
REMARK   84  A    between atoms: _201  and  _202
REMARK   85  A    between atoms: _201  and  _204
REMARK   86  A    between atoms: _204  and  _205
REMARK   87  A    between atoms: _211  and  _213
REMARK   88  A    between atoms: _213  and  _214
REMARK   89  A    between atoms: _213  and  _216
REMARK   90  A    between atoms: _216  and  _217
REMARK   91  A    between atoms: _219  and  _221
REMARK   92  A    between atoms: _221  and  _222
REMARK   93  A    between atoms: _221  and  _224
REMARK   94  A    between atoms: _224  and  _225
REMARK   95  A    between atoms: _228  and  _230
REMARK   96  A    between atoms: _230  and  _231
REMARK   97  A    between atoms: _230  and  _233
REMARK   98  A    between atoms: _233  and  _234
REMARK   99  A    between atoms: _244  and  _246
REMARK  100  A    between atoms: _246  and  _247
REMARK  101  A    between atoms: _246  and  _249
REMARK  102  A    between atoms: _249  and  _250
REMARK  103  A    between atoms: _256  and  _257
REMARK  104  A    between atoms: _262  and  _264
REMARK  105  A    between atoms: _264  and  _265
REMARK  106  A    between atoms: _264  and  _267
REMARK  107  A    between atoms: _267  and  _268
REMARK  108  A    between atoms: _273  and  _274
REMARK  109  A    between atoms: _276  and  _278
REMARK  110  A    between atoms: _278  and  _279
REMARK  111  A    between atoms: _278  and  _281
REMARK  112  A    between atoms: _281  and  _282
REMARK  113  A    between atoms: _284  and  _286
REMARK  114  A    between atoms: _286  and  _287
REMARK  115  A    between atoms: _286  and  _289
REMARK  116  A    between atoms: _289  and  _290
REMARK  117  A    between atoms: _293  and  _295
REMARK  118  A    between atoms: _295  and  _296
REMARK  119  A    between atoms: _295  and  _298
REMARK  120  A    between atoms: _298  and  _299
REMARK  121  A    between atoms: _299  and  _300
REMARK  122  A    between atoms: _300  and  _301
REMARK  123  A    between atoms: _310  and  _312
REMARK  124  A    between atoms: _312  and  _313
REMARK  125  A    between atoms: _312  and  _315
REMARK  126  A    between atoms: _315  and  _316
REMARK  127  A    between atoms: _326  and  _328
REMARK  128  A    between atoms: _328  and  _329
REMARK  129  A    between atoms: _328  and  _331
REMARK  130  A    between atoms: _331  and  _332
REMARK                            x       y       z     vdW  Elec       q    Type
REMARK                         _______ _______ _______ _____ _____    ______ ____
ROOT
ATOM      1  CA  GLY A   2      76.834  91.002  24.901  0.00  0.00    +0.176 C 
ENDROOT
BRANCH   1   3
ATOM      2  C   GLY A   1      77.746  93.178  25.467  0.00  0.00    +0.240 C 
ATOM      3  N   GLY A   2      76.833  92.237  25.658  0.00  0.00    -0.295 N 
ATOM      4  H   GLY A   2      76.093  92.390  26.373  0.00  0.00    +0.150 HD
ATOM      5  O   GLY A   1      78.487  93.213  24.487  0.00  0.00    -0.274 OA
BRANCH   2   6
ATOM      6  CA  GLY A   1      77.804  94.250  26.529  0.00  0.00    +0.169 C 
BRANCH   6   7
ATOM      7  N   GLY A   1      78.802  95.251  26.227  0.00  0.00    -0.236 NA
ATOM      8  H   GLY A   1      79.771  94.958  25.990  0.00  0.00    +0.142 HD
ENDBRANCH   6   7
ENDBRANCH   2   6
ENDBRANCH   1   3
BRANCH   1   9
ATOM      9  C   GLY A   2      78.187  90.317  24.802  0.00  0.00    +0.243 C 
ATOM     10  N   GLY A   3      78.772  89.905  25.925  0.00  0.00    -0.296 N 
ATOM     11  H   GLY A   3      79.679  89.403  25.846  0.00  0.00    +0.150 HD
ATOM     12  O   GLY A   2      78.702  90.151  23.700  0.00  0.00    -0.273 OA
BRANCH  10  13
ATOM     13  CA  GLY A   3      78.224  90.112  27.252  0.00  0.00    +0.163 C 
BRANCH  13  14
ATOM     14  C   GLY A   3      79.361  90.185  28.251  0.00  0.00    +0.229 C 
ATOM     15  O   GLY A   3      80.316  89.418  28.141  0.00  0.00    -0.286 OA
ENDBRANCH  13  14
ENDBRANCH  10  13
ENDBRANCH   1   9
TORSDOF 6
REMARK  Name = ../refined-set-2016/4ufl/4ufl_pocket.pdb
REMARK  130 active torsions:
REMARK  status: ('A' for Active; 'I' for Inactive)
REMARK    1  A    between atoms: _1  and  _3
REMARK    2  A    between atoms: _3  and  _4
REMARK    3  A    between atoms: _3  and  _6
REMARK    4  A    between atoms: _9  and  _11
REMARK    5  A    between atoms: _11  and  _12
REMARK    6  A    between atoms: _14  and  _16
REMARK    7  A    between atoms: _16  and  _17
REMARK    8  A    between atoms: _19  and  _21
REMARK    9  A    between atoms: _21  and  _22
REMARK   10  A    between atoms: _24  and  _26
REMARK   11  A    between atoms: _26  and  _27
REMARK   12  A    between atoms: _26  and  _29
REMARK   13  A    between atoms: _29  and  _30
REMARK   14  A    between atoms: _33  and  _35
REMARK   15  A    between atoms: _35  and  _36
REMARK   16  A    between atoms: _35  and  _38
REMARK   17  A    between atoms: _38  and  _39
REMARK   18  A    between atoms: _39  and  _40
REMARK   19  A    between atoms: _40  and  _41
REMARK   20  A    between atoms: _41  and  _42
REMARK   21  A    between atoms: _46  and  _48
REMARK   22  A    between atoms: _48  and  _49
REMARK   23  A    between atoms: _48  and  _51
REMARK   24  A    between atoms: _51  and  _52
REMARK   25  A    between atoms: _52  and  _53
REMARK   26  A    between atoms: _56  and  _58
REMARK   27  A    between atoms: _58  and  _59
REMARK   28  A    between atoms: _58  and  _61
REMARK   29  A    between atoms: _61  and  _62
REMARK   30  A    between atoms: _65  and  _67
REMARK   31  A    between atoms: _67  and  _68
REMARK   32  A    between atoms: _67  and  _70
REMARK   33  A    between atoms: _70  and  _71
REMARK   34  A    between atoms: _74  and  _76
REMARK   35  A    between atoms: _76  and  _77
REMARK   36  A    between atoms: _76  and  _79
REMARK   37  A    between atoms: _79  and  _80
REMARK   38  A    between atoms: _83  and  _85
REMARK   39  A    between atoms: _85  and  _86
REMARK   40  A    between atoms: _85  and  _88
REMARK   41  A    between atoms: _88  and  _89
REMARK   42  A    between atoms: _92  and  _94
REMARK   43  A    between atoms: _94  and  _95
REMARK   44  A    between atoms: _94  and  _97
REMARK   45  A    between atoms: _97  and  _98
REMARK   46  A    between atoms: _108  and  _110
REMARK   47  A    between atoms: _110  and  _111
REMARK   48  A    between atoms: _110  and  _113
REMARK   49  A    between atoms: _113  and  _114
REMARK   50  A    between atoms: _119  and  _121
REMARK   51  A    between atoms: _121  and  _122
REMARK   52  A    between atoms: _121  and  _124
REMARK   53  A    between atoms: _124  and  _125
REMARK   54  A    between atoms: _125  and  _126
REMARK   55  A    between atoms: _129  and  _131
REMARK   56  A    between atoms: _131  and  _132
REMARK   57  A    between atoms: _131  and  _134
REMARK   58  A    between atoms: _134  and  _135
REMARK   59  A    between atoms: _135  and  _136
REMARK   60  A    between atoms: _136  and  _137
REMARK   61  A    between atoms: _146  and  _148
REMARK   62  A    between atoms: _148  and  _149
REMARK   63  A    between atoms: _148  and  _151
REMARK   64  A    between atoms: _151  and  _152
REMARK   65  A    between atoms: _155  and  _157
REMARK   66  A    between atoms: _157  and  _158
REMARK   67  A    between atoms: _157  and  _160
REMARK   68  A    between atoms: _160  and  _161
REMARK   69  A    between atoms: _166  and  _168
REMARK   70  A    between atoms: _168  and  _169
REMARK   71  A    between atoms: _168  and  _171
REMARK   72  A    between atoms: _171  and  _172
REMARK   73  A    between atoms: _177  and  _178
REMARK   74  A    between atoms: _180  and  _182
REMARK   75  A    between atoms: _182  and  _183
REMARK   76  A    between atoms: _182  and  _185
REMARK   77  A    between atoms: _185  and  _186
REMARK   78  A    between atoms: _186  and  _187
REMARK   79  A    between atoms: _190  and  _192
REMARK   80  A    between atoms: _192  and  _193
REMARK   81  A    between atoms: _192  and  _195
REMARK   82  A    between atoms: _195  and  _196
REMARK   83  A    between atoms: _199  and  _201
REMARK   84  A    between atoms: _201  and  _202
REMARK   85  A    between atoms: _201  and  _204
REMARK   86  A    between atoms: _204  and  _205
REMARK   87  A    between atoms: _211  and  _213
REMARK   88  A    between atoms: _213  and  _214
REMARK   89  A    between atoms: _213  and  _216
REMARK   90  A    between atoms: _216  and  _217
REMARK   91  A    between atoms: _219  and  _221
REMARK   92  A    between atoms: _221  and  _222
REMARK   93  A    between atoms: _221  and  _224
REMARK   94  A    between atoms: _224  and  _225
REMARK   95  A    between atoms: _228  and  _230
REMARK   96  A    between atoms: _230  and  _231
REMARK   97  A    between atoms: _230  and  _233
REMARK   98  A    between atoms: _233  and  _234
REMARK   99  A    between atoms: _244  and  _246
REMARK  100  A    between atoms: _246  and  _247
REMARK  101  A    between atoms: _246  and  _249
REMARK  102  A    between atoms: _249  and  _250
REMARK  103  A    between atoms: _256  and  _257
REMARK  104  A    between atoms: _262  and  _264
REMARK  105  A    between atoms: _264  and  _265
REMARK  106  A    between atoms: _264  and  _267
REMARK  107  A    between atoms: _267  and  _268
REMARK  108  A    between atoms: _273  and  _274
REMARK  109  A    between atoms: _276  and  _278
REMARK  110  A    between atoms: _278  and  _279
REMARK  111  A    between atoms: _278  and  _281
REMARK  112  A    between atoms: _281  and  _282
REMARK  113  A    between atoms: _284  and  _286
REMARK  114  A    between atoms: _286  and  _287
REMARK  115  A    between atoms: _286  and  _289
REMARK  116  A    between atoms: _289  and  _290
REMARK  117  A    between atoms: _293  and  _295
REMARK  118  A    between atoms: _295  and  _296
REMARK  119  A    between atoms: _295  and  _298
REMARK  120  A    between atoms: _298  and  _299
REMARK  121  A    between atoms: _299  and  _300
REMARK  122  A    between atoms: _300  and  _301
REMARK  123  A    between atoms: _310  and  _312
REMARK  124  A    between atoms: _312  and  _313
REMARK  125  A    between atoms: _312  and  _315
REMARK  126  A    between atoms: _315  and  _316
REMARK  127  A    between atoms: _326  and  _328
REMARK  128  A    between atoms: _328  and  _329
REMARK  129  A    between atoms: _328  and  _331
REMARK  130  A    between atoms: _331  and  _332
REMARK                            x       y       z     vdW  Elec       q    Type
REMARK                         _______ _______ _______ _____ _____    ______ ____
ROOT
ATOM      1  CA  THR A   1      82.879  92.739  27.822  0.00  0.00    +0.160 C 
ENDROOT
BRANCH   1   2
ATOM      2  N   THR A   1      81.637  92.397  28.504  0.00  0.00    -0.237 NA
ATOM      3  H   THR A   1      80.731  92.740  28.126  0.00  0.00    +0.142 HD
ENDBRANCH   1   2
BRANCH   1   4
ATOM      4  C   THR A   1      83.665  93.804  28.577  0.00  0.00    +0.227 C 
ATOM      5  O   THR A   1      84.871  93.952  28.373  0.00  0.00    -0.287 OA
ENDBRANCH   1   4
BRANCH   1   6
ATOM      6  CB  THR A   1      82.625  93.242  26.373  0.00  0.00    +0.134 C 
ATOM      7  CG2 THR A   1      81.992  92.162  25.533  0.00  0.00    +0.034 C 
BRANCH   6   8
ATOM      8  OG1 THR A   1      81.757  94.381  26.398  0.00  0.00    -0.383 OA
ATOM      9  HG1 THR A   1      82.179  95.104  26.926  0.00  0.00    +0.210 HD
ENDBRANCH   6   8
ENDBRANCH   1   6
TORSDOF 4
REMARK  Name = ../refined-set-2016/4ufl/4ufl_pocket.pdb
REMARK  130 active torsions:
REMARK  status: ('A' for Active; 'I' for Inactive)
REMARK    1  A    between atoms: _1  and  _3
REMARK    2  A    between atoms: _3  and  _4
REMARK    3  A    between atoms: _3  and  _6
REMARK    4  A    between atoms: _9  and  _11
REMARK    5  A    between atoms: _11  and  _12
REMARK    6  A    between atoms: _14  and  _16
REMARK    7  A    between atoms: _16  and  _17
REMARK    8  A    between atoms: _19  and  _21
REMARK    9  A    between atoms: _21  and  _22
REMARK   10  A    between atoms: _24  and  _26
REMARK   11  A    between atoms: _26  and  _27
REMARK   12  A    between atoms: _26  and  _29
REMARK   13  A    between atoms: _29  and  _30
REMARK   14  A    between atoms: _33  and  _35
REMARK   15  A    between atoms: _35  and  _36
REMARK   16  A    between atoms: _35  and  _38
REMARK   17  A    between atoms: _38  and  _39
REMARK   18  A    between atoms: _39  and  _40
REMARK   19  A    between atoms: _40  and  _41
REMARK   20  A    between atoms: _41  and  _42
REMARK   21  A    between atoms: _46  and  _48
REMARK   22  A    between atoms: _48  and  _49
REMARK   23  A    between atoms: _48  and  _51
REMARK   24  A    between atoms: _51  and  _52
REMARK   25  A    between atoms: _52  and  _53
REMARK   26  A    between atoms: _56  and  _58
REMARK   27  A    between atoms: _58  and  _59
REMARK   28  A    between atoms: _58  and  _61
REMARK   29  A    between atoms: _61  and  _62
REMARK   30  A    between atoms: _65  and  _67
REMARK   31  A    between atoms: _67  and  _68
REMARK   32  A    between atoms: _67  and  _70
REMARK   33  A    between atoms: _70  and  _71
REMARK   34  A    between atoms: _74  and  _76
REMARK   35  A    between atoms: _76  and  _77
REMARK   36  A    between atoms: _76  and  _79
REMARK   37  A    between atoms: _79  and  _80
REMARK   38  A    between atoms: _83  and  _85
REMARK   39  A    between atoms: _85  and  _86
REMARK   40  A    between atoms: _85  and  _88
REMARK   41  A    between atoms: _88  and  _89
REMARK   42  A    between atoms: _92  and  _94
REMARK   43  A    between atoms: _94  and  _95
REMARK   44  A    between atoms: _94  and  _97
REMARK   45  A    between atoms: _97  and  _98
REMARK   46  A    between atoms: _108  and  _110
REMARK   47  A    between atoms: _110  and  _111
REMARK   48  A    between atoms: _110  and  _113
REMARK   49  A    between atoms: _113  and  _114
REMARK   50  A    between atoms: _119  and  _121
REMARK   51  A    between atoms: _121  and  _122
REMARK   52  A    between atoms: _121  and  _124
REMARK   53  A    between atoms: _124  and  _125
REMARK   54  A    between atoms: _125  and  _126
REMARK   55  A    between atoms: _129  and  _131
REMARK   56  A    between atoms: _131  and  _132
REMARK   57  A    between atoms: _131  and  _134
REMARK   58  A    between atoms: _134  and  _135
REMARK   59  A    between atoms: _135  and  _136
REMARK   60  A    between atoms: _136  and  _137
REMARK   61  A    between atoms: _146  and  _148
REMARK   62  A    between atoms: _148  and  _149
REMARK   63  A    between atoms: _148  and  _151
REMARK   64  A    between atoms: _151  and  _152
REMARK   65  A    between atoms: _155  and  _157
REMARK   66  A    between atoms: _157  and  _158
REMARK   67  A    between atoms: _157  and  _160
REMARK   68  A    between atoms: _160  and  _161
REMARK   69  A    between atoms: _166  and  _168
REMARK   70  A    between atoms: _168  and  _169
REMARK   71  A    between atoms: _168  and  _171
REMARK   72  A    between atoms: _171  and  _172
REMARK   73  A    between atoms: _177  and  _178
REMARK   74  A    between atoms: _180  and  _182
REMARK   75  A    between atoms: _182  and  _183
REMARK   76  A    between atoms: _182  and  _185
REMARK   77  A    between atoms: _185  and  _186
REMARK   78  A    between atoms: _186  and  _187
REMARK   79  A    between atoms: _190  and  _192
REMARK   80  A    between atoms: _192  and  _193
REMARK   81  A    between atoms: _192  and  _195
REMARK   82  A    between atoms: _195  and  _196
REMARK   83  A    between atoms: _199  and  _201
REMARK   84  A    between atoms: _201  and  _202
REMARK   85  A    between atoms: _201  and  _204
REMARK   86  A    between atoms: _204  and  _205
REMARK   87  A    between atoms: _211  and  _213
REMARK   88  A    between atoms: _213  and  _214
REMARK   89  A    between atoms: _213  and  _216
REMARK   90  A    between atoms: _216  and  _217
REMARK   91  A    between atoms: _219  and  _221
REMARK   92  A    between atoms: _221  and  _222
REMARK   93  A    between atoms: _221  and  _224
REMARK   94  A    between atoms: _224  and  _225
REMARK   95  A    between atoms: _228  and  _230
REMARK   96  A    between atoms: _230  and  _231
REMARK   97  A    between atoms: _230  and  _233
REMARK   98  A    between atoms: _233  and  _234
REMARK   99  A    between atoms: _244  and  _246
REMARK  100  A    between atoms: _246  and  _247
REMARK  101  A    between atoms: _246  and  _249
REMARK  102  A    between atoms: _249  and  _250
REMARK  103  A    between atoms: _256  and  _257
REMARK  104  A    between atoms: _262  and  _264
REMARK  105  A    between atoms: _264  and  _265
REMARK  106  A    between atoms: _264  and  _267
REMARK  107  A    between atoms: _267  and  _268
REMARK  108  A    between atoms: _273  and  _274
REMARK  109  A    between atoms: _276  and  _278
REMARK  110  A    between atoms: _278  and  _279
REMARK  111  A    between atoms: _278  and  _281
REMARK  112  A    between atoms: _281  and  _282
REMARK  113  A    between atoms: _284  and  _286
REMARK  114  A    between atoms: _286  and  _287
REMARK  115  A    between atoms: _286  and  _289
REMARK  116  A    between atoms: _289  and  _290
REMARK  117  A    between atoms: _293  and  _295
REMARK  118  A    between atoms: _295  and  _296
REMARK  119  A    between atoms: _295  and  _298
REMARK  120  A    between atoms: _298  and  _299
REMARK  121  A    between atoms: _299  and  _300
REMARK  122  A    between atoms: _300  and  _301
REMARK  123  A    between atoms: _310  and  _312
REMARK  124  A    between atoms: _312  and  _313
REMARK  125  A    between atoms: _312  and  _315
REMARK  126  A    between atoms: _315  and  _316
REMARK  127  A    between atoms: _326  and  _328
REMARK  128  A    between atoms: _328  and  _329
REMARK  129  A    between atoms: _328  and  _331
REMARK  130  A    between atoms: _331  and  _332
REMARK                            x       y       z     vdW  Elec       q    Type
REMARK                         _______ _______ _______ _____ _____    ______ ____
ROOT
ATOM      1  CG  LYS A   1      74.352  99.425  21.656  0.00  0.00    -0.000 C 
ENDROOT
BRANCH   1   2
ATOM      2  CB  LYS A   1      75.457 100.455  21.677  0.00  0.00    +0.025 C 
BRANCH   2   3
ATOM      3  CA  LYS A   1      75.656 101.180  23.002  0.00  0.00    +0.133 C 
BRANCH   3   4
ATOM      4  N   LYS A   1      76.738 102.134  22.874  0.00  0.00    -0.239 NA
ATOM      5  H   LYS A   1      77.638 101.815  22.462  0.00  0.00    +0.142 HD
ENDBRANCH   3   4
BRANCH   3   6
ATOM      6  C   LYS A   1      75.937 100.208  24.141  0.00  0.00    +0.224 C 
ATOM      7  O   LYS A   1      77.017  99.621  24.210  0.00  0.00    -0.287 OA
ENDBRANCH   3   6
ENDBRANCH   2   3
ENDBRANCH   1   2
BRANCH   1   8
ATOM      8  CD  LYS A   1      74.166  98.965  20.214  0.00  0.00    -0.024 C 
BRANCH   8   9
ATOM      9  CE  LYS A   1      73.704  97.551  20.131  0.00  0.00    -0.086 C 
BRANCH   9  10
ATOM     10  NZ  LYS A   1      73.518  97.199  18.707  0.00  0.00    +0.380 N 
ATOM     11  HZ1 LYS A   1      73.195  96.213  18.634  0.00  0.00    -0.089 HD
ATOM     12  HZ2 LYS A   1      72.807  97.830  18.285  0.00  0.00    -0.089 HD
ATOM     13  HZ3 LYS A   1      74.422  97.307  18.204  0.00  0.00    -0.089 HD
ENDBRANCH   9  10
ENDBRANCH   8   9
ENDBRANCH   1   8
TORSDOF 7
REMARK  Name = ../refined-set-2016/4ufl/4ufl_pocket.pdb
REMARK  130 active torsions:
REMARK  status: ('A' for Active; 'I' for Inactive)
REMARK    1  A    between atoms: _1  and  _3
REMARK    2  A    between atoms: _3  and  _4
REMARK    3  A    between atoms: _3  and  _6
REMARK    4  A    between atoms: _9  and  _11
REMARK    5  A    between atoms: _11  and  _12
REMARK    6  A    between atoms: _14  and  _16
REMARK    7  A    between atoms: _16  and  _17
REMARK    8  A    between atoms: _19  and  _21
REMARK    9  A    between atoms: _21  and  _22
REMARK   10  A    between atoms: _24  and  _26
REMARK   11  A    between atoms: _26  and  _27
REMARK   12  A    between atoms: _26  and  _29
REMARK   13  A    between atoms: _29  and  _30
REMARK   14  A    between atoms: _33  and  _35
REMARK   15  A    between atoms: _35  and  _36
REMARK   16  A    between atoms: _35  and  _38
REMARK   17  A    between atoms: _38  and  _39
REMARK   18  A    between atoms: _39  and  _40
REMARK   19  A    between atoms: _40  and  _41
REMARK   20  A    between atoms: _41  and  _42
REMARK   21  A    between atoms: _46  and  _48
REMARK   22  A    between atoms: _48  and  _49
REMARK   23  A    between atoms: _48  and  _51
REMARK   24  A    between atoms: _51  and  _52
REMARK   25  A    between atoms: _52  and  _53
REMARK   26  A    between atoms: _56  and  _58
REMARK   27  A    between atoms: _58  and  _59
REMARK   28  A    between atoms: _58  and  _61
REMARK   29  A    between atoms: _61  and  _62
REMARK   30  A    between atoms: _65  and  _67
REMARK   31  A    between atoms: _67  and  _68
REMARK   32  A    between atoms: _67  and  _70
REMARK   33  A    between atoms: _70  and  _71
REMARK   34  A    between atoms: _74  and  _76
REMARK   35  A    between atoms: _76  and  _77
REMARK   36  A    between atoms: _76  and  _79
REMARK   37  A    between atoms: _79  and  _80
REMARK   38  A    between atoms: _83  and  _85
REMARK   39  A    between atoms: _85  and  _86
REMARK   40  A    between atoms: _85  and  _88
REMARK   41  A    between atoms: _88  and  _89
REMARK   42  A    between atoms: _92  and  _94
REMARK   43  A    between atoms: _94  and  _95
REMARK   44  A    between atoms: _94  and  _97
REMARK   45  A    between atoms: _97  and  _98
REMARK   46  A    between atoms: _108  and  _110
REMARK   47  A    between atoms: _110  and  _111
REMARK   48  A    between atoms: _110  and  _113
REMARK   49  A    between atoms: _113  and  _114
REMARK   50  A    between atoms: _119  and  _121
REMARK   51  A    between atoms: _121  and  _122
REMARK   52  A    between atoms: _121  and  _124
REMARK   53  A    between atoms: _124  and  _125
REMARK   54  A    between atoms: _125  and  _126
REMARK   55  A    between atoms: _129  and  _131
REMARK   56  A    between atoms: _131  and  _132
REMARK   57  A    between atoms: _131  and  _134
REMARK   58  A    between atoms: _134  and  _135
REMARK   59  A    between atoms: _135  and  _136
REMARK   60  A    between atoms: _136  and  _137
REMARK   61  A    between atoms: _146  and  _148
REMARK   62  A    between atoms: _148  and  _149
REMARK   63  A    between atoms: _148  and  _151
REMARK   64  A    between atoms: _151  and  _152
REMARK   65  A    between atoms: _155  and  _157
REMARK   66  A    between atoms: _157  and  _158
REMARK   67  A    between atoms: _157  and  _160
REMARK   68  A    between atoms: _160  and  _161
REMARK   69  A    between atoms: _166  and  _168
REMARK   70  A    between atoms: _168  and  _169
REMARK   71  A    between atoms: _168  and  _171
REMARK   72  A    between atoms: _171  and  _172
REMARK   73  A    between atoms: _177  and  _178
REMARK   74  A    between atoms: _180  and  _182
REMARK   75  A    between atoms: _182  and  _183
REMARK   76  A    between atoms: _182  and  _185
REMARK   77  A    between atoms: _185  and  _186
REMARK   78  A    between atoms: _186  and  _187
REMARK   79  A    between atoms: _190  and  _192
REMARK   80  A    between atoms: _192  and  _193
REMARK   81  A    between atoms: _192  and  _195
REMARK   82  A    between atoms: _195  and  _196
REMARK   83  A    between atoms: _199  and  _201
REMARK   84  A    between atoms: _201  and  _202
REMARK   85  A    between atoms: _201  and  _204
REMARK   86  A    between atoms: _204  and  _205
REMARK   87  A    between atoms: _211  and  _213
REMARK   88  A    between atoms: _213  and  _214
REMARK   89  A    between atoms: _213  and  _216
REMARK   90  A    between atoms: _216  and  _217
REMARK   91  A    between atoms: _219  and  _221
REMARK   92  A    between atoms: _221  and  _222
REMARK   93  A    between atoms: _221  and  _224
REMARK   94  A    between atoms: _224  and  _225
REMARK   95  A    between atoms: _228  and  _230
REMARK   96  A    between atoms: _230  and  _231
REMARK   97  A    between atoms: _230  and  _233
REMARK   98  A    between atoms: _233  and  _234
REMARK   99  A    between atoms: _244  and  _246
REMARK  100  A    between atoms: _246  and  _247
REMARK  101  A    between atoms: _246  and  _249
REMARK  102  A    between atoms: _249  and  _250
REMARK  103  A    between atoms: _256  and  _257
REMARK  104  A    between atoms: _262  and  _264
REMARK  105  A    between atoms: _264  and  _265
REMARK  106  A    between atoms: _264  and  _267
REMARK  107  A    between atoms: _267  and  _268
REMARK  108  A    between atoms: _273  and  _274
REMARK  109  A    between atoms: _276  and  _278
REMARK  110  A    between atoms: _278  and  _279
REMARK  111  A    between atoms: _278  and  _281
REMARK  112  A    between atoms: _281  and  _282
REMARK  113  A    between atoms: _284  and  _286
REMARK  114  A    between atoms: _286  and  _287
REMARK  115  A    between atoms: _286  and  _289
REMARK  116  A    between atoms: _289  and  _290
REMARK  117  A    between atoms: _293  and  _295
REMARK  118  A    between atoms: _295  and  _296
REMARK  119  A    between atoms: _295  and  _298
REMARK  120  A    between atoms: _298  and  _299
REMARK  121  A    between atoms: _299  and  _300
REMARK  122  A    between atoms: _300  and  _301
REMARK  123  A    between atoms: _310  and  _312
REMARK  124  A    between atoms: _312  and  _313
REMARK  125  A    between atoms: _312  and  _315
REMARK  126  A    between atoms: _315  and  _316
REMARK  127  A    between atoms: _326  and  _328
REMARK  128  A    between atoms: _328  and  _329
REMARK  129  A    between atoms: _328  and  _331
REMARK  130  A    between atoms: _331  and  _332
REMARK                            x       y       z     vdW  Elec       q    Type
REMARK                         _______ _______ _______ _____ _____    ______ ____
ROOT
ATOM      1  CA  GLU A   1      73.491  95.824  26.959  0.00  0.00    +0.134 C 
ENDROOT
BRANCH   1   2
ATOM      2  N   GLU A   1      74.449  96.880  26.670  0.00  0.00    -0.239 NA
ATOM      3  H   GLU A   1      75.457  96.707  26.860  0.00  0.00    +0.142 HD
ENDBRANCH   1   2
BRANCH   1   4
ATOM      4  C   GLU A   1      72.594  96.196  28.119  0.00  0.00    +0.224 C 
ATOM      5  O   GLU A   1      73.053  96.722  29.130  0.00  0.00    -0.287 OA
ENDBRANCH   1   4
BRANCH   1   6
ATOM      6  CB  GLU A   1      74.206  94.518  27.292  0.00  0.00    +0.037 C 
BRANCH   6   7
ATOM      7  CG  GLU A   1      73.297  93.488  27.943  0.00  0.00    +0.116 C 
BRANCH   7   8
ATOM      8  CD  GLU A   1      73.961  92.149  28.109  0.00  0.00    +0.365 C 
ATOM      9  OE2 GLU A   1      73.289  91.208  28.557  0.00  0.00    -0.246 OA
ATOM     10  OE1 GLU A   1      75.155  92.028  27.791  0.00  0.00    -0.246 OA
ENDBRANCH   7   8
ENDBRANCH   6   7
ENDBRANCH   1   6
TORSDOF 5
REMARK  Name = ../refined-set-2016/4ufl/4ufl_pocket.pdb
REMARK  130 active torsions:
REMARK  status: ('A' for Active; 'I' for Inactive)
REMARK    1  A    between atoms: _1  and  _3
REMARK    2  A    between atoms: _3  and  _4
REMARK    3  A    between atoms: _3  and  _6
REMARK    4  A    between atoms: _9  and  _11
REMARK    5  A    between atoms: _11  and  _12
REMARK    6  A    between atoms: _14  and  _16
REMARK    7  A    between atoms: _16  and  _17
REMARK    8  A    between atoms: _19  and  _21
REMARK    9  A    between atoms: _21  and  _22
REMARK   10  A    between atoms: _24  and  _26
REMARK   11  A    between atoms: _26  and  _27
REMARK   12  A    between atoms: _26  and  _29
REMARK   13  A    between atoms: _29  and  _30
REMARK   14  A    between atoms: _33  and  _35
REMARK   15  A    between atoms: _35  and  _36
REMARK   16  A    between atoms: _35  and  _38
REMARK   17  A    between atoms: _38  and  _39
REMARK   18  A    between atoms: _39  and  _40
REMARK   19  A    between atoms: _40  and  _41
REMARK   20  A    between atoms: _41  and  _42
REMARK   21  A    between atoms: _46  and  _48
REMARK   22  A    between atoms: _48  and  _49
REMARK   23  A    between atoms: _48  and  _51
REMARK   24  A    between atoms: _51  and  _52
REMARK   25  A    between atoms: _52  and  _53
REMARK   26  A    between atoms: _56  and  _58
REMARK   27  A    between atoms: _58  and  _59
REMARK   28  A    between atoms: _58  and  _61
REMARK   29  A    between atoms: _61  and  _62
REMARK   30  A    between atoms: _65  and  _67
REMARK   31  A    between atoms: _67  and  _68
REMARK   32  A    between atoms: _67  and  _70
REMARK   33  A    between atoms: _70  and  _71
REMARK   34  A    between atoms: _74  and  _76
REMARK   35  A    between atoms: _76  and  _77
REMARK   36  A    between atoms: _76  and  _79
REMARK   37  A    between atoms: _79  and  _80
REMARK   38  A    between atoms: _83  and  _85
REMARK   39  A    between atoms: _85  and  _86
REMARK   40  A    between atoms: _85  and  _88
REMARK   41  A    between atoms: _88  and  _89
REMARK   42  A    between atoms: _92  and  _94
REMARK   43  A    between atoms: _94  and  _95
REMARK   44  A    between atoms: _94  and  _97
REMARK   45  A    between atoms: _97  and  _98
REMARK   46  A    between atoms: _108  and  _110
REMARK   47  A    between atoms: _110  and  _111
REMARK   48  A    between atoms: _110  and  _113
REMARK   49  A    between atoms: _113  and  _114
REMARK   50  A    between atoms: _119  and  _121
REMARK   51  A    between atoms: _121  and  _122
REMARK   52  A    between atoms: _121  and  _124
REMARK   53  A    between atoms: _124  and  _125
REMARK   54  A    between atoms: _125  and  _126
REMARK   55  A    between atoms: _129  and  _131
REMARK   56  A    between atoms: _131  and  _132
REMARK   57  A    between atoms: _131  and  _134
REMARK   58  A    between atoms: _134  and  _135
REMARK   59  A    between atoms: _135  and  _136
REMARK   60  A    between atoms: _136  and  _137
REMARK   61  A    between atoms: _146  and  _148
REMARK   62  A    between atoms: _148  and  _149
REMARK   63  A    between atoms: _148  and  _151
REMARK   64  A    between atoms: _151  and  _152
REMARK   65  A    between atoms: _155  and  _157
REMARK   66  A    between atoms: _157  and  _158
REMARK   67  A    between atoms: _157  and  _160
REMARK   68  A    between atoms: _160  and  _161
REMARK   69  A    between atoms: _166  and  _168
REMARK   70  A    between atoms: _168  and  _169
REMARK   71  A    between atoms: _168  and  _171
REMARK   72  A    between atoms: _171  and  _172
REMARK   73  A    between atoms: _177  and  _178
REMARK   74  A    between atoms: _180  and  _182
REMARK   75  A    between atoms: _182  and  _183
REMARK   76  A    between atoms: _182  and  _185
REMARK   77  A    between atoms: _185  and  _186
REMARK   78  A    between atoms: _186  and  _187
REMARK   79  A    between atoms: _190  and  _192
REMARK   80  A    between atoms: _192  and  _193
REMARK   81  A    between atoms: _192  and  _195
REMARK   82  A    between atoms: _195  and  _196
REMARK   83  A    between atoms: _199  and  _201
REMARK   84  A    between atoms: _201  and  _202
REMARK   85  A    between atoms: _201  and  _204
REMARK   86  A    between atoms: _204  and  _205
REMARK   87  A    between atoms: _211  and  _213
REMARK   88  A    between atoms: _213  and  _214
REMARK   89  A    between atoms: _213  and  _216
REMARK   90  A    between atoms: _216  and  _217
REMARK   91  A    between atoms: _219  and  _221
REMARK   92  A    between atoms: _221  and  _222
REMARK   93  A    between atoms: _221  and  _224
REMARK   94  A    between atoms: _224  and  _225
REMARK   95  A    between atoms: _228  and  _230
REMARK   96  A    between atoms: _230  and  _231
REMARK   97  A    between atoms: _230  and  _233
REMARK   98  A    between atoms: _233  and  _234
REMARK   99  A    between atoms: _244  and  _246
REMARK  100  A    between atoms: _246  and  _247
REMARK  101  A    between atoms: _246  and  _249
REMARK  102  A    between atoms: _249  and  _250
REMARK  103  A    between atoms: _256  and  _257
REMARK  104  A    between atoms: _262  and  _264
REMARK  105  A    between atoms: _264  and  _265
REMARK  106  A    between atoms: _264  and  _267
REMARK  107  A    between atoms: _267  and  _268
REMARK  108  A    between atoms: _273  and  _274
REMARK  109  A    between atoms: _276  and  _278
REMARK  110  A    between atoms: _278  and  _279
REMARK  111  A    between atoms: _278  and  _281
REMARK  112  A    between atoms: _281  and  _282
REMARK  113  A    between atoms: _284  and  _286
REMARK  114  A    between atoms: _286  and  _287
REMARK  115  A    between atoms: _286  and  _289
REMARK  116  A    between atoms: _289  and  _290
REMARK  117  A    between atoms: _293  and  _295
REMARK  118  A    between atoms: _295  and  _296
REMARK  119  A    between atoms: _295  and  _298
REMARK  120  A    between atoms: _298  and  _299
REMARK  121  A    between atoms: _299  and  _300
REMARK  122  A    between atoms: _300  and  _301
REMARK  123  A    between atoms: _310  and  _312
REMARK  124  A    between atoms: _312  and  _313
REMARK  125  A    between atoms: _312  and  _315
REMARK  126  A    between atoms: _315  and  _316
REMARK  127  A    between atoms: _326  and  _328
REMARK  128  A    between atoms: _328  and  _329
REMARK  129  A    between atoms: _328  and  _331
REMARK  130  A    between atoms: _331  and  _332
REMARK                            x       y       z     vdW  Elec       q    Type
REMARK                         _______ _______ _______ _____ _____    ______ ____
ROOT
ATOM      1  CA  THR A   2      78.832  85.960  25.279  0.00  0.00    +0.176 C 
ENDROOT
BRANCH   1   3
ATOM      2  C   THR A   1      76.602  87.038  25.781  0.00  0.00    +0.241 C 
ATOM      3  N   THR A   2      77.672  86.312  26.134  0.00  0.00    -0.295 N 
ATOM      4  H   THR A   2      77.691  85.958  27.112  0.00  0.00    +0.150 HD
ATOM      5  O   THR A   1      76.579  87.828  24.841  0.00  0.00    -0.274 OA
BRANCH   2   6
ATOM      6  CA  THR A   1      75.341  86.890  26.660  0.00  0.00    +0.172 C 
BRANCH   6   7
ATOM      7  N   THR A   1      75.506  86.198  27.931  0.00  0.00    -0.236 NA
ATOM      8  H   THR A   1      76.274  86.475  28.576  0.00  0.00    +0.142 HD
ENDBRANCH   6   7
BRANCH   6   9
ATOM      9  CB  THR A   1      74.740  88.275  26.916  0.00  0.00    +0.135 C 
ATOM     10  CG2 THR A   1      73.353  88.120  27.455  0.00  0.00    +0.034 C 
BRANCH   9  11
ATOM     11  OG1 THR A   1      75.519  88.959  27.899  0.00  0.00    -0.383 OA
ATOM     12  HG1 THR A   1      75.129  89.854  28.063  0.00  0.00    +0.210 HD
ENDBRANCH   9  11
ENDBRANCH   6   9
ENDBRANCH   2   6
ENDBRANCH   1   3
BRANCH   1  13
ATOM     13  C   THR A   2      80.133  85.772  26.064  0.00  0.00    +0.243 C 
ATOM     14  N   ASP A   3      80.434  86.685  26.979  0.00  0.00    -0.297 N 
ATOM     15  H   ASP A   3      79.821  87.516  27.103  0.00  0.00    +0.150 HD
ATOM     16  O   THR A   2      80.840  84.779  25.873  0.00  0.00    -0.273 OA
BRANCH  14  17
ATOM     17  CA  ASP A   3      81.623  86.526  27.812  0.00  0.00    +0.148 C 
BRANCH  17  18
ATOM     18  C   ASP A   3      81.278  86.592  29.284  0.00  0.00    +0.227 C 
ATOM     19  O   ASP A   3      82.129  86.869  30.131  0.00  0.00    -0.286 OA
ENDBRANCH  17  18
BRANCH  17  20
ATOM     20  CB  ASP A   3      82.652  87.588  27.452  0.00  0.00    +0.142 C 
BRANCH  20  21
ATOM     21  CG  ASP A   3      83.142  87.440  26.034  0.00  0.00    +0.367 C 
ATOM     22  OD2 ASP A   3      83.840  86.443  25.767  0.00  0.00    -0.246 OA
ATOM     23  OD1 ASP A   3      82.801  88.291  25.187  0.00  0.00    -0.246 OA
ENDBRANCH  20  21
ENDBRANCH  17  20
ENDBRANCH  14  17
ENDBRANCH   1  13
BRANCH   1  24
ATOM     24  CB  THR A   2      79.137  87.001  24.167  0.00  0.00    +0.137 C 
ATOM     25  CG2 THR A   2      80.429  86.668  23.459  0.00  0.00    +0.034 C 
BRANCH  24  26
ATOM     26  OG1 THR A   2      78.079  86.994  23.200  0.00  0.00    -0.382 OA
ATOM     27  HG1 THR A   2      78.276  87.658  22.493  0.00  0.00    +0.210 HD
ENDBRANCH  24  26
ENDBRANCH   1  24
TORSDOF 12
REMARK  Name = ../refined-set-2016/4ufl/4ufl_pocket.pdb
REMARK  130 active torsions:
REMARK  status: ('A' for Active; 'I' for Inactive)
REMARK    1  A    between atoms: _1  and  _3
REMARK    2  A    between atoms: _3  and  _4
REMARK    3  A    between atoms: _3  and  _6
REMARK    4  A    between atoms: _9  and  _11
REMARK    5  A    between atoms: _11  and  _12
REMARK    6  A    between atoms: _14  and  _16
REMARK    7  A    between atoms: _16  and  _17
REMARK    8  A    between atoms: _19  and  _21
REMARK    9  A    between atoms: _21  and  _22
REMARK   10  A    between atoms: _24  and  _26
REMARK   11  A    between atoms: _26  and  _27
REMARK   12  A    between atoms: _26  and  _29
REMARK   13  A    between atoms: _29  and  _30
REMARK   14  A    between atoms: _33  and  _35
REMARK   15  A    between atoms: _35  and  _36
REMARK   16  A    between atoms: _35  and  _38
REMARK   17  A    between atoms: _38  and  _39
REMARK   18  A    between atoms: _39  and  _40
REMARK   19  A    between atoms: _40  and  _41
REMARK   20  A    between atoms: _41  and  _42
REMARK   21  A    between atoms: _46  and  _48
REMARK   22  A    between atoms: _48  and  _49
REMARK   23  A    between atoms: _48  and  _51
REMARK   24  A    between atoms: _51  and  _52
REMARK   25  A    between atoms: _52  and  _53
REMARK   26  A    between atoms: _56  and  _58
REMARK   27  A    between atoms: _58  and  _59
REMARK   28  A    between atoms: _58  and  _61
REMARK   29  A    between atoms: _61  and  _62
REMARK   30  A    between atoms: _65  and  _67
REMARK   31  A    between atoms: _67  and  _68
REMARK   32  A    between atoms: _67  and  _70
REMARK   33  A    between atoms: _70  and  _71
REMARK   34  A    between atoms: _74  and  _76
REMARK   35  A    between atoms: _76  and  _77
REMARK   36  A    between atoms: _76  and  _79
REMARK   37  A    between atoms: _79  and  _80
REMARK   38  A    between atoms: _83  and  _85
REMARK   39  A    between atoms: _85  and  _86
REMARK   40  A    between atoms: _85  and  _88
REMARK   41  A    between atoms: _88  and  _89
REMARK   42  A    between atoms: _92  and  _94
REMARK   43  A    between atoms: _94  and  _95
REMARK   44  A    between atoms: _94  and  _97
REMARK   45  A    between atoms: _97  and  _98
REMARK   46  A    between atoms: _108  and  _110
REMARK   47  A    between atoms: _110  and  _111
REMARK   48  A    between atoms: _110  and  _113
REMARK   49  A    between atoms: _113  and  _114
REMARK   50  A    between atoms: _119  and  _121
REMARK   51  A    between atoms: _121  and  _122
REMARK   52  A    between atoms: _121  and  _124
REMARK   53  A    between atoms: _124  and  _125
REMARK   54  A    between atoms: _125  and  _126
REMARK   55  A    between atoms: _129  and  _131
REMARK   56  A    between atoms: _131  and  _132
REMARK   57  A    between atoms: _131  and  _134
REMARK   58  A    between atoms: _134  and  _135
REMARK   59  A    between atoms: _135  and  _136
REMARK   60  A    between atoms: _136  and  _137
REMARK   61  A    between atoms: _146  and  _148
REMARK   62  A    between atoms: _148  and  _149
REMARK   63  A    between atoms: _148  and  _151
REMARK   64  A    between atoms: _151  and  _152
REMARK   65  A    between atoms: _155  and  _157
REMARK   66  A    between atoms: _157  and  _158
REMARK   67  A    between atoms: _157  and  _160
REMARK   68  A    between atoms: _160  and  _161
REMARK   69  A    between atoms: _166  and  _168
REMARK   70  A    between atoms: _168  and  _169
REMARK   71  A    between atoms: _168  and  _171
REMARK   72  A    between atoms: _171  and  _172
REMARK   73  A    between atoms: _177  and  _178
REMARK   74  A    between atoms: _180  and  _182
REMARK   75  A    between atoms: _182  and  _183
REMARK   76  A    between atoms: _182  and  _185
REMARK   77  A    between atoms: _185  and  _186
REMARK   78  A    between atoms: _186  and  _187
REMARK   79  A    between atoms: _190  and  _192
REMARK   80  A    between atoms: _192  and  _193
REMARK   81  A    between atoms: _192  and  _195
REMARK   82  A    between atoms: _195  and  _196
REMARK   83  A    between atoms: _199  and  _201
REMARK   84  A    between atoms: _201  and  _202
REMARK   85  A    between atoms: _201  and  _204
REMARK   86  A    between atoms: _204  and  _205
REMARK   87  A    between atoms: _211  and  _213
REMARK   88  A    between atoms: _213  and  _214
REMARK   89  A    between atoms: _213  and  _216
REMARK   90  A    between atoms: _216  and  _217
REMARK   91  A    between atoms: _219  and  _221
REMARK   92  A    between atoms: _221  and  _222
REMARK   93  A    between atoms: _221  and  _224
REMARK   94  A    between atoms: _224  and  _225
REMARK   95  A    between atoms: _228  and  _230
REMARK   96  A    between atoms: _230  and  _231
REMARK   97  A    between atoms: _230  and  _233
REMARK   98  A    between atoms: _233  and  _234
REMARK   99  A    between atoms: _244  and  _246
REMARK  100  A    between atoms: _246  and  _247
REMARK  101  A    between atoms: _246  and  _249
REMARK  102  A    between atoms: _249  and  _250
REMARK  103  A    between atoms: _256  and  _257
REMARK  104  A    between atoms: _262  and  _264
REMARK  105  A    between atoms: _264  and  _265
REMARK  106  A    between atoms: _264  and  _267
REMARK  107  A    between atoms: _267  and  _268
REMARK  108  A    between atoms: _273  and  _274
REMARK  109  A    between atoms: _276  and  _278
REMARK  110  A    between atoms: _278  and  _279
REMARK  111  A    between atoms: _278  and  _281
REMARK  112  A    between atoms: _281  and  _282
REMARK  113  A    between atoms: _284  and  _286
REMARK  114  A    between atoms: _286  and  _287
REMARK  115  A    between atoms: _286  and  _289
REMARK  116  A    between atoms: _289  and  _290
REMARK  117  A    between atoms: _293  and  _295
REMARK  118  A    between atoms: _295  and  _296
REMARK  119  A    between atoms: _295  and  _298
REMARK  120  A    between atoms: _298  and  _299
REMARK  121  A    between atoms: _299  and  _300
REMARK  122  A    between atoms: _300  and  _301
REMARK  123  A    between atoms: _310  and  _312
REMARK  124  A    between atoms: _312  and  _313
REMARK  125  A    between atoms: _312  and  _315
REMARK  126  A    between atoms: _315  and  _316
REMARK  127  A    between atoms: _326  and  _328
REMARK  128  A    between atoms: _328  and  _329
REMARK  129  A    between atoms: _328  and  _331
REMARK  130  A    between atoms: _331  and  _332
REMARK                            x       y       z     vdW  Elec       q    Type
REMARK                         _______ _______ _______ _____ _____    ______ ____
ROOT
ATOM      1  CA  LEU A   1      69.514  96.763  23.874  0.00  0.00    +0.133 C 
ENDROOT
BRANCH   1   2
ATOM      2  N   LEU A   1      70.080  97.907  24.570  0.00  0.00    -0.239 NA
ATOM      3  H   LEU A   1      70.804  97.753  25.300  0.00  0.00    +0.142 HD
ENDBRANCH   1   2
BRANCH   1   4
ATOM      4  C   LEU A   1      69.546  95.545  24.777  0.00  0.00    +0.224 C 
ATOM      5  O   LEU A   1      70.582  95.235  25.355  0.00  0.00    -0.287 OA
ENDBRANCH   1   4
BRANCH   1   6
ATOM      6  CB  LEU A   1      70.305  96.488  22.597  0.00  0.00    +0.025 C 
BRANCH   6   7
ATOM      7  CG  LEU A   1      69.983  95.260  21.747  0.00  0.00    +0.002 C 
ATOM      8  CD2 LEU A   1      68.559  95.298  21.209  0.00  0.00    +0.000 C 
ATOM      9  CD1 LEU A   1      71.003  95.140  20.624  0.00  0.00    +0.000 C 
ENDBRANCH   6   7
ENDBRANCH   1   6
TORSDOF 4
REMARK  Name = ../refined-set-2016/4ufl/4ufl_pocket.pdb
REMARK  130 active torsions:
REMARK  status: ('A' for Active; 'I' for Inactive)
REMARK    1  A    between atoms: _1  and  _3
REMARK    2  A    between atoms: _3  and  _4
REMARK    3  A    between atoms: _3  and  _6
REMARK    4  A    between atoms: _9  and  _11
REMARK    5  A    between atoms: _11  and  _12
REMARK    6  A    between atoms: _14  and  _16
REMARK    7  A    between atoms: _16  and  _17
REMARK    8  A    between atoms: _19  and  _21
REMARK    9  A    between atoms: _21  and  _22
REMARK   10  A    between atoms: _24  and  _26
REMARK   11  A    between atoms: _26  and  _27
REMARK   12  A    between atoms: _26  and  _29
REMARK   13  A    between atoms: _29  and  _30
REMARK   14  A    between atoms: _33  and  _35
REMARK   15  A    between atoms: _35  and  _36
REMARK   16  A    between atoms: _35  and  _38
REMARK   17  A    between atoms: _38  and  _39
REMARK   18  A    between atoms: _39  and  _40
REMARK   19  A    between atoms: _40  and  _41
REMARK   20  A    between atoms: _41  and  _42
REMARK   21  A    between atoms: _46  and  _48
REMARK   22  A    between atoms: _48  and  _49
REMARK   23  A    between atoms: _48  and  _51
REMARK   24  A    between atoms: _51  and  _52
REMARK   25  A    between atoms: _52  and  _53
REMARK   26  A    between atoms: _56  and  _58
REMARK   27  A    between atoms: _58  and  _59
REMARK   28  A    between atoms: _58  and  _61
REMARK   29  A    between atoms: _61  and  _62
REMARK   30  A    between atoms: _65  and  _67
REMARK   31  A    between atoms: _67  and  _68
REMARK   32  A    between atoms: _67  and  _70
REMARK   33  A    between atoms: _70  and  _71
REMARK   34  A    between atoms: _74  and  _76
REMARK   35  A    between atoms: _76  and  _77
REMARK   36  A    between atoms: _76  and  _79
REMARK   37  A    between atoms: _79  and  _80
REMARK   38  A    between atoms: _83  and  _85
REMARK   39  A    between atoms: _85  and  _86
REMARK   40  A    between atoms: _85  and  _88
REMARK   41  A    between atoms: _88  and  _89
REMARK   42  A    between atoms: _92  and  _94
REMARK   43  A    between atoms: _94  and  _95
REMARK   44  A    between atoms: _94  and  _97
REMARK   45  A    between atoms: _97  and  _98
REMARK   46  A    between atoms: _108  and  _110
REMARK   47  A    between atoms: _110  and  _111
REMARK   48  A    between atoms: _110  and  _113
REMARK   49  A    between atoms: _113  and  _114
REMARK   50  A    between atoms: _119  and  _121
REMARK   51  A    between atoms: _121  and  _122
REMARK   52  A    between atoms: _121  and  _124
REMARK   53  A    between atoms: _124  and  _125
REMARK   54  A    between atoms: _125  and  _126
REMARK   55  A    between atoms: _129  and  _131
REMARK   56  A    between atoms: _131  and  _132
REMARK   57  A    between atoms: _131  and  _134
REMARK   58  A    between atoms: _134  and  _135
REMARK   59  A    between atoms: _135  and  _136
REMARK   60  A    between atoms: _136  and  _137
REMARK   61  A    between atoms: _146  and  _148
REMARK   62  A    between atoms: _148  and  _149
REMARK   63  A    between atoms: _148  and  _151
REMARK   64  A    between atoms: _151  and  _152
REMARK   65  A    between atoms: _155  and  _157
REMARK   66  A    between atoms: _157  and  _158
REMARK   67  A    between atoms: _157  and  _160
REMARK   68  A    between atoms: _160  and  _161
REMARK   69  A    between atoms: _166  and  _168
REMARK   70  A    between atoms: _168  and  _169
REMARK   71  A    between atoms: _168  and  _171
REMARK   72  A    between atoms: _171  and  _172
REMARK   73  A    between atoms: _177  and  _178
REMARK   74  A    between atoms: _180  and  _182
REMARK   75  A    between atoms: _182  and  _183
REMARK   76  A    between atoms: _182  and  _185
REMARK   77  A    between atoms: _185  and  _186
REMARK   78  A    between atoms: _186  and  _187
REMARK   79  A    between atoms: _190  and  _192
REMARK   80  A    between atoms: _192  and  _193
REMARK   81  A    between atoms: _192  and  _195
REMARK   82  A    between atoms: _195  and  _196
REMARK   83  A    between atoms: _199  and  _201
REMARK   84  A    between atoms: _201  and  _202
REMARK   85  A    between atoms: _201  and  _204
REMARK   86  A    between atoms: _204  and  _205
REMARK   87  A    between atoms: _211  and  _213
REMARK   88  A    between atoms: _213  and  _214
REMARK   89  A    between atoms: _213  and  _216
REMARK   90  A    between atoms: _216  and  _217
REMARK   91  A    between atoms: _219  and  _221
REMARK   92  A    between atoms: _221  and  _222
REMARK   93  A    between atoms: _221  and  _224
REMARK   94  A    between atoms: _224  and  _225
REMARK   95  A    between atoms: _228  and  _230
REMARK   96  A    between atoms: _230  and  _231
REMARK   97  A    between atoms: _230  and  _233
REMARK   98  A    between atoms: _233  and  _234
REMARK   99  A    between atoms: _244  and  _246
REMARK  100  A    between atoms: _246  and  _247
REMARK  101  A    between atoms: _246  and  _249
REMARK  102  A    between atoms: _249  and  _250
REMARK  103  A    between atoms: _256  and  _257
REMARK  104  A    between atoms: _262  and  _264
REMARK  105  A    between atoms: _264  and  _265
REMARK  106  A    between atoms: _264  and  _267
REMARK  107  A    between atoms: _267  and  _268
REMARK  108  A    between atoms: _273  and  _274
REMARK  109  A    between atoms: _276  and  _278
REMARK  110  A    between atoms: _278  and  _279
REMARK  111  A    between atoms: _278  and  _281
REMARK  112  A    between atoms: _281  and  _282
REMARK  113  A    between atoms: _284  and  _286
REMARK  114  A    between atoms: _286  and  _287
REMARK  115  A    between atoms: _286  and  _289
REMARK  116  A    between atoms: _289  and  _290
REMARK  117  A    between atoms: _293  and  _295
REMARK  118  A    between atoms: _295  and  _296
REMARK  119  A    between atoms: _295  and  _298
REMARK  120  A    between atoms: _298  and  _299
REMARK  121  A    between atoms: _299  and  _300
REMARK  122  A    between atoms: _300  and  _301
REMARK  123  A    between atoms: _310  and  _312
REMARK  124  A    between atoms: _312  and  _313
REMARK  125  A    between atoms: _312  and  _315
REMARK  126  A    between atoms: _315  and  _316
REMARK  127  A    between atoms: _326  and  _328
REMARK  128  A    between atoms: _328  and  _329
REMARK  129  A    between atoms: _328  and  _331
REMARK  130  A    between atoms: _331  and  _332
REMARK                            x       y       z     vdW  Elec       q    Type
REMARK                         _______ _______ _______ _____ _____    ______ ____
ROOT
ATOM      1  CG  TRP A   1      72.653  90.244  24.212  0.00  0.00    -0.002 A 
ATOM      2  CD2 TRP A   1      73.102  91.541  23.791  0.00  0.00    +0.013 A 
ATOM      3  CE3 TRP A   1      72.714  92.851  24.095  0.00  0.00    +0.001 A 
ATOM      4  CZ3 TRP A   1      73.368  93.898  23.466  0.00  0.00    +0.000 A 
ATOM      5  CH2 TRP A   1      74.395  93.664  22.543  0.00  0.00    +0.001 A 
ATOM      6  CZ2 TRP A   1      74.794  92.395  22.224  0.00  0.00    +0.017 A 
ATOM      7  CE2 TRP A   1      74.136  91.339  22.851  0.00  0.00    +0.056 A 
ATOM      8  NE1 TRP A   1      74.326  89.989  22.733  0.00  0.00    -0.352 N 
ATOM      9  HE1 TRP A   1      75.031  89.528  22.123  0.00  0.00    +0.166 HD
ATOM     10  CD1 TRP A   1      73.434  89.342  23.552  0.00  0.00    +0.068 A 
ENDROOT
BRANCH   1  11
ATOM     11  CB  TRP A   1      71.602  89.915  25.232  0.00  0.00    +0.053 C 
BRANCH  11  12
ATOM     12  CA  TRP A   1      70.128  90.229  24.964  0.00  0.00    +0.137 C 
BRANCH  12  13
ATOM     13  N   TRP A   1      69.745  91.531  25.509  0.00  0.00    -0.239 NA
ATOM     14  H   TRP A   1      70.083  91.797  26.456  0.00  0.00    +0.142 HD
ENDBRANCH  12  13
BRANCH  12  15
ATOM     15  C   TRP A   1      69.291  89.139  25.621  0.00  0.00    +0.224 C 
ATOM     16  O   TRP A   1      68.769  88.252  24.958  0.00  0.00    -0.287 OA
ENDBRANCH  12  15
ENDBRANCH  11  12
ENDBRANCH   1  11
TORSDOF 4
REMARK  Name = ../refined-set-2016/4ufl/4ufl_pocket.pdb
REMARK  130 active torsions:
REMARK  status: ('A' for Active; 'I' for Inactive)
REMARK    1  A    between atoms: _1  and  _3
REMARK    2  A    between atoms: _3  and  _4
REMARK    3  A    between atoms: _3  and  _6
REMARK    4  A    between atoms: _9  and  _11
REMARK    5  A    between atoms: _11  and  _12
REMARK    6  A    between atoms: _14  and  _16
REMARK    7  A    between atoms: _16  and  _17
REMARK    8  A    between atoms: _19  and  _21
REMARK    9  A    between atoms: _21  and  _22
REMARK   10  A    between atoms: _24  and  _26
REMARK   11  A    between atoms: _26  and  _27
REMARK   12  A    between atoms: _26  and  _29
REMARK   13  A    between atoms: _29  and  _30
REMARK   14  A    between atoms: _33  and  _35
REMARK   15  A    between atoms: _35  and  _36
REMARK   16  A    between atoms: _35  and  _38
REMARK   17  A    between atoms: _38  and  _39
REMARK   18  A    between atoms: _39  and  _40
REMARK   19  A    between atoms: _40  and  _41
REMARK   20  A    between atoms: _41  and  _42
REMARK   21  A    between atoms: _46  and  _48
REMARK   22  A    between atoms: _48  and  _49
REMARK   23  A    between atoms: _48  and  _51
REMARK   24  A    between atoms: _51  and  _52
REMARK   25  A    between atoms: _52  and  _53
REMARK   26  A    between atoms: _56  and  _58
REMARK   27  A    between atoms: _58  and  _59
REMARK   28  A    between atoms: _58  and  _61
REMARK   29  A    between atoms: _61  and  _62
REMARK   30  A    between atoms: _65  and  _67
REMARK   31  A    between atoms: _67  and  _68
REMARK   32  A    between atoms: _67  and  _70
REMARK   33  A    between atoms: _70  and  _71
REMARK   34  A    between atoms: _74  and  _76
REMARK   35  A    between atoms: _76  and  _77
REMARK   36  A    between atoms: _76  and  _79
REMARK   37  A    between atoms: _79  and  _80
REMARK   38  A    between atoms: _83  and  _85
REMARK   39  A    between atoms: _85  and  _86
REMARK   40  A    between atoms: _85  and  _88
REMARK   41  A    between atoms: _88  and  _89
REMARK   42  A    between atoms: _92  and  _94
REMARK   43  A    between atoms: _94  and  _95
REMARK   44  A    between atoms: _94  and  _97
REMARK   45  A    between atoms: _97  and  _98
REMARK   46  A    between atoms: _108  and  _110
REMARK   47  A    between atoms: _110  and  _111
REMARK   48  A    between atoms: _110  and  _113
REMARK   49  A    between atoms: _113  and  _114
REMARK   50  A    between atoms: _119  and  _121
REMARK   51  A    between atoms: _121  and  _122
REMARK   52  A    between atoms: _121  and  _124
REMARK   53  A    between atoms: _124  and  _125
REMARK   54  A    between atoms: _125  and  _126
REMARK   55  A    between atoms: _129  and  _131
REMARK   56  A    between atoms: _131  and  _132
REMARK   57  A    between atoms: _131  and  _134
REMARK   58  A    between atoms: _134  and  _135
REMARK   59  A    between atoms: _135  and  _136
REMARK   60  A    between atoms: _136  and  _137
REMARK   61  A    between atoms: _146  and  _148
REMARK   62  A    between atoms: _148  and  _149
REMARK   63  A    between atoms: _148  and  _151
REMARK   64  A    between atoms: _151  and  _152
REMARK   65  A    between atoms: _155  and  _157
REMARK   66  A    between atoms: _157  and  _158
REMARK   67  A    between atoms: _157  and  _160
REMARK   68  A    between atoms: _160  and  _161
REMARK   69  A    between atoms: _166  and  _168
REMARK   70  A    between atoms: _168  and  _169
REMARK   71  A    between atoms: _168  and  _171
REMARK   72  A    between atoms: _171  and  _172
REMARK   73  A    between atoms: _177  and  _178
REMARK   74  A    between atoms: _180  and  _182
REMARK   75  A    between atoms: _182  and  _183
REMARK   76  A    between atoms: _182  and  _185
REMARK   77  A    between atoms: _185  and  _186
REMARK   78  A    between atoms: _186  and  _187
REMARK   79  A    between atoms: _190  and  _192
REMARK   80  A    between atoms: _192  and  _193
REMARK   81  A    between atoms: _192  and  _195
REMARK   82  A    between atoms: _195  and  _196
REMARK   83  A    between atoms: _199  and  _201
REMARK   84  A    between atoms: _201  and  _202
REMARK   85  A    between atoms: _201  and  _204
REMARK   86  A    between atoms: _204  and  _205
REMARK   87  A    between atoms: _211  and  _213
REMARK   88  A    between atoms: _213  and  _214
REMARK   89  A    between atoms: _213  and  _216
REMARK   90  A    between atoms: _216  and  _217
REMARK   91  A    between atoms: _219  and  _221
REMARK   92  A    between atoms: _221  and  _222
REMARK   93  A    between atoms: _221  and  _224
REMARK   94  A    between atoms: _224  and  _225
REMARK   95  A    between atoms: _228  and  _230
REMARK   96  A    between atoms: _230  and  _231
REMARK   97  A    between atoms: _230  and  _233
REMARK   98  A    between atoms: _233  and  _234
REMARK   99  A    between atoms: _244  and  _246
REMARK  100  A    between atoms: _246  and  _247
REMARK  101  A    between atoms: _246  and  _249
REMARK  102  A    between atoms: _249  and  _250
REMARK  103  A    between atoms: _256  and  _257
REMARK  104  A    between atoms: _262  and  _264
REMARK  105  A    between atoms: _264  and  _265
REMARK  106  A    between atoms: _264  and  _267
REMARK  107  A    between atoms: _267  and  _268
REMARK  108  A    between atoms: _273  and  _274
REMARK  109  A    between atoms: _276  and  _278
REMARK  110  A    between atoms: _278  and  _279
REMARK  111  A    between atoms: _278  and  _281
REMARK  112  A    between atoms: _281  and  _282
REMARK  113  A    between atoms: _284  and  _286
REMARK  114  A    between atoms: _286  and  _287
REMARK  115  A    between atoms: _286  and  _289
REMARK  116  A    between atoms: _289  and  _290
REMARK  117  A    between atoms: _293  and  _295
REMARK  118  A    between atoms: _295  and  _296
REMARK  119  A    between atoms: _295  and  _298
REMARK  120  A    between atoms: _298  and  _299
REMARK  121  A    between atoms: _299  and  _300
REMARK  122  A    between atoms: _300  and  _301
REMARK  123  A    between atoms: _310  and  _312
REMARK  124  A    between atoms: _312  and  _313
REMARK  125  A    between atoms: _312  and  _315
REMARK  126  A    between atoms: _315  and  _316
REMARK  127  A    between atoms: _326  and  _328
REMARK  128  A    between atoms: _328  and  _329
REMARK  129  A    between atoms: _328  and  _331
REMARK  130  A    between atoms: _331  and  _332
REMARK                            x       y       z     vdW  Elec       q    Type
REMARK                         _______ _______ _______ _____ _____    ______ ____
ROOT
ATOM      1  CA  GLU A   2      69.726  88.878  17.069  0.00  0.00    +0.149 C 
ENDROOT
BRANCH   1   4
ATOM      2  C   ASN A   1      69.567  89.904  19.278  0.00  0.00    +0.239 C 
ATOM      3  O   ASN A   1      69.569  88.823  19.858  0.00  0.00    -0.274 OA
ATOM      4  N   GLU A   2      69.622  90.029  17.956  0.00  0.00    -0.297 N 
ATOM      5  H   GLU A   2      69.590  90.982  17.540  0.00  0.00    +0.150 HD
BRANCH   2   6
ATOM      6  CA  ASN A   1      69.518  91.196  20.062  0.00  0.00    +0.154 C 
BRANCH   6   7
ATOM      7  N   ASN A   1      68.301  91.375  20.855  0.00  0.00    -0.238 NA
ATOM      8  H   ASN A   1      68.393  91.617  21.862  0.00  0.00    +0.142 HD
ENDBRANCH   6   7
BRANCH   6   9
ATOM      9  CB  ASN A   1      70.754  91.248  20.964  0.00  0.00    +0.111 C 
BRANCH   9  10
ATOM     10  CG  ASN A   1      72.062  91.229  20.177  0.00  0.00    +0.221 C 
ATOM     11  ND2 ASN A   1      72.781  90.114  20.253  0.00  0.00    -0.329 N 
ATOM     12 HD21 ASN A   1      72.454  89.324  20.845  0.00  0.00    +0.145 HD
ATOM     13 HD22 ASN A   1      73.670  90.031  19.720  0.00  0.00    +0.145 HD
ATOM     14  OD1 ASN A   1      72.406  92.191  19.490  0.00  0.00    -0.275 OA
ENDBRANCH   9  10
ENDBRANCH   6   9
ENDBRANCH   2   6
ENDBRANCH   1   4
BRANCH   1  15
ATOM     15  C   GLU A   2      68.679  87.791  17.315  0.00  0.00    +0.241 C 
ATOM     16  N   ARG A   3      67.485  88.207  17.724  0.00  0.00    -0.298 N 
ATOM     17  H   ARG A   3      67.311  89.228  17.815  0.00  0.00    +0.150 HD
ATOM     18  O   GLU A   2      68.948  86.604  17.140  0.00  0.00    -0.273 OA
BRANCH  16  19
ATOM     19  CA  ARG A   3      66.412  87.276  18.049  0.00  0.00    +0.137 C 
BRANCH  19  20
ATOM     20  C   ARG A   3      65.147  87.833  17.422  0.00  0.00    +0.227 C 
ATOM     21  O   ARG A   3      65.126  88.996  17.014  0.00  0.00    -0.286 OA
ENDBRANCH  19  20
BRANCH  19  22
ATOM     22  CB  ARG A   3      66.260  87.114  19.570  0.00  0.00    +0.031 C 
BRANCH  22  23
ATOM     23  CG  ARG A   3      67.412  86.395  20.252  0.00  0.00    +0.045 C 
BRANCH  23  24
ATOM     24  CD  ARG A   3      67.433  84.913  19.901  0.00  0.00    +0.174 C 
BRANCH  24  25
ATOM     25  NE  ARG A   3      68.582  84.231  20.492  0.00  0.00    -0.265 N 
ATOM     26  HE  ARG A   3      68.438  83.720  21.386  0.00  0.00    +0.259 HD
ATOM     27  CZ  ARG A   3      69.801  84.222  19.958  0.00  0.00    +0.342 C 
ATOM     28  NH2 ARG A   3      70.792  83.599  20.573  0.00  0.00    -0.292 N 
ATOM     29 HH21 ARG A   3      70.620  83.114  21.477  0.00  0.00    +0.255 HD
ATOM     30 HH22 ARG A   3      71.743  83.594  20.153  0.00  0.00    +0.255 HD
ATOM     31  NH1 ARG A   3      70.032  84.834  18.805  0.00  0.00    -0.292 N 
ATOM     32 HH11 ARG A   3      70.987  84.823  18.393  0.00  0.00    +0.255 HD
ATOM     33 HH12 ARG A   3      69.258  85.325  18.313  0.00  0.00    +0.255 HD
ENDBRANCH  24  25
ENDBRANCH  23  24
ENDBRANCH  22  23
ENDBRANCH  19  22
ENDBRANCH  16  19
ENDBRANCH   1  15
BRANCH   1  34
ATOM     34  CB  GLU A   2      71.140  88.318  17.160  0.00  0.00    +0.041 C 
BRANCH  34  35
ATOM     35  CG  GLU A   2      72.118  89.278  16.495  0.00  0.00    +0.116 C 
BRANCH  35  36
ATOM     36  CD  GLU A   2      73.565  88.862  16.604  0.00  0.00    +0.365 C 
ATOM     37  OE2 GLU A   2      73.826  87.691  16.936  0.00  0.00    -0.246 OA
ATOM     38  OE1 GLU A   2      74.439  89.715  16.344  0.00  0.00    -0.246 OA
ENDBRANCH  35  36
ENDBRANCH  34  35
ENDBRANCH   1  34
TORSDOF 15
REMARK  Name = ../refined-set-2016/4ufl/4ufl_pocket.pdb
REMARK  130 active torsions:
REMARK  status: ('A' for Active; 'I' for Inactive)
REMARK    1  A    between atoms: _1  and  _3
REMARK    2  A    between atoms: _3  and  _4
REMARK    3  A    between atoms: _3  and  _6
REMARK    4  A    between atoms: _9  and  _11
REMARK    5  A    between atoms: _11  and  _12
REMARK    6  A    between atoms: _14  and  _16
REMARK    7  A    between atoms: _16  and  _17
REMARK    8  A    between atoms: _19  and  _21
REMARK    9  A    between atoms: _21  and  _22
REMARK   10  A    between atoms: _24  and  _26
REMARK   11  A    between atoms: _26  and  _27
REMARK   12  A    between atoms: _26  and  _29
REMARK   13  A    between atoms: _29  and  _30
REMARK   14  A    between atoms: _33  and  _35
REMARK   15  A    between atoms: _35  and  _36
REMARK   16  A    between atoms: _35  and  _38
REMARK   17  A    between atoms: _38  and  _39
REMARK   18  A    between atoms: _39  and  _40
REMARK   19  A    between atoms: _40  and  _41
REMARK   20  A    between atoms: _41  and  _42
REMARK   21  A    between atoms: _46  and  _48
REMARK   22  A    between atoms: _48  and  _49
REMARK   23  A    between atoms: _48  and  _51
REMARK   24  A    between atoms: _51  and  _52
REMARK   25  A    between atoms: _52  and  _53
REMARK   26  A    between atoms: _56  and  _58
REMARK   27  A    between atoms: _58  and  _59
REMARK   28  A    between atoms: _58  and  _61
REMARK   29  A    between atoms: _61  and  _62
REMARK   30  A    between atoms: _65  and  _67
REMARK   31  A    between atoms: _67  and  _68
REMARK   32  A    between atoms: _67  and  _70
REMARK   33  A    between atoms: _70  and  _71
REMARK   34  A    between atoms: _74  and  _76
REMARK   35  A    between atoms: _76  and  _77
REMARK   36  A    between atoms: _76  and  _79
REMARK   37  A    between atoms: _79  and  _80
REMARK   38  A    between atoms: _83  and  _85
REMARK   39  A    between atoms: _85  and  _86
REMARK   40  A    between atoms: _85  and  _88
REMARK   41  A    between atoms: _88  and  _89
REMARK   42  A    between atoms: _92  and  _94
REMARK   43  A    between atoms: _94  and  _95
REMARK   44  A    between atoms: _94  and  _97
REMARK   45  A    between atoms: _97  and  _98
REMARK   46  A    between atoms: _108  and  _110
REMARK   47  A    between atoms: _110  and  _111
REMARK   48  A    between atoms: _110  and  _113
REMARK   49  A    between atoms: _113  and  _114
REMARK   50  A    between atoms: _119  and  _121
REMARK   51  A    between atoms: _121  and  _122
REMARK   52  A    between atoms: _121  and  _124
REMARK   53  A    between atoms: _124  and  _125
REMARK   54  A    between atoms: _125  and  _126
REMARK   55  A    between atoms: _129  and  _131
REMARK   56  A    between atoms: _131  and  _132
REMARK   57  A    between atoms: _131  and  _134
REMARK   58  A    between atoms: _134  and  _135
REMARK   59  A    between atoms: _135  and  _136
REMARK   60  A    between atoms: _136  and  _137
REMARK   61  A    between atoms: _146  and  _148
REMARK   62  A    between atoms: _148  and  _149
REMARK   63  A    between atoms: _148  and  _151
REMARK   64  A    between atoms: _151  and  _152
REMARK   65  A    between atoms: _155  and  _157
REMARK   66  A    between atoms: _157  and  _158
REMARK   67  A    between atoms: _157  and  _160
REMARK   68  A    between atoms: _160  and  _161
REMARK   69  A    between atoms: _166  and  _168
REMARK   70  A    between atoms: _168  and  _169
REMARK   71  A    between atoms: _168  and  _171
REMARK   72  A    between atoms: _171  and  _172
REMARK   73  A    between atoms: _177  and  _178
REMARK   74  A    between atoms: _180  and  _182
REMARK   75  A    between atoms: _182  and  _183
REMARK   76  A    between atoms: _182  and  _185
REMARK   77  A    between atoms: _185  and  _186
REMARK   78  A    between atoms: _186  and  _187
REMARK   79  A    between atoms: _190  and  _192
REMARK   80  A    between atoms: _192  and  _193
REMARK   81  A    between atoms: _192  and  _195
REMARK   82  A    between atoms: _195  and  _196
REMARK   83  A    between atoms: _199  and  _201
REMARK   84  A    between atoms: _201  and  _202
REMARK   85  A    between atoms: _201  and  _204
REMARK   86  A    between atoms: _204  and  _205
REMARK   87  A    between atoms: _211  and  _213
REMARK   88  A    between atoms: _213  and  _214
REMARK   89  A    between atoms: _213  and  _216
REMARK   90  A    between atoms: _216  and  _217
REMARK   91  A    between atoms: _219  and  _221
REMARK   92  A    between atoms: _221  and  _222
REMARK   93  A    between atoms: _221  and  _224
REMARK   94  A    between atoms: _224  and  _225
REMARK   95  A    between atoms: _228  and  _230
REMARK   96  A    between atoms: _230  and  _231
REMARK   97  A    between atoms: _230  and  _233
REMARK   98  A    between atoms: _233  and  _234
REMARK   99  A    between atoms: _244  and  _246
REMARK  100  A    between atoms: _246  and  _247
REMARK  101  A    between atoms: _246  and  _249
REMARK  102  A    between atoms: _249  and  _250
REMARK  103  A    between atoms: _256  and  _257
REMARK  104  A    between atoms: _262  and  _264
REMARK  105  A    between atoms: _264  and  _265
REMARK  106  A    between atoms: _264  and  _267
REMARK  107  A    between atoms: _267  and  _268
REMARK  108  A    between atoms: _273  and  _274
REMARK  109  A    between atoms: _276  and  _278
REMARK  110  A    between atoms: _278  and  _279
REMARK  111  A    between atoms: _278  and  _281
REMARK  112  A    between atoms: _281  and  _282
REMARK  113  A    between atoms: _284  and  _286
REMARK  114  A    between atoms: _286  and  _287
REMARK  115  A    between atoms: _286  and  _289
REMARK  116  A    between atoms: _289  and  _290
REMARK  117  A    between atoms: _293  and  _295
REMARK  118  A    between atoms: _295  and  _296
REMARK  119  A    between atoms: _295  and  _298
REMARK  120  A    between atoms: _298  and  _299
REMARK  121  A    between atoms: _299  and  _300
REMARK  122  A    between atoms: _300  and  _301
REMARK  123  A    between atoms: _310  and  _312
REMARK  124  A    between atoms: _312  and  _313
REMARK  125  A    between atoms: _312  and  _315
REMARK  126  A    between atoms: _315  and  _316
REMARK  127  A    between atoms: _326  and  _328
REMARK  128  A    between atoms: _328  and  _329
REMARK  129  A    between atoms: _328  and  _331
REMARK  130  A    between atoms: _331  and  _332
REMARK                            x       y       z     vdW  Elec       q    Type
REMARK                         _______ _______ _______ _____ _____    ______ ____
ROOT
ATOM      1  CA  ASP A   1      69.378  94.146  15.471  0.00  0.00    +0.144 C 
ENDROOT
BRANCH   1   2
ATOM      2  N   ASP A   1      68.057  94.591  15.042  0.00  0.00    -0.239 NA
ATOM      3  H   ASP A   1      67.994  95.462  14.477  0.00  0.00    +0.142 HD
ENDBRANCH   1   2
BRANCH   1   4
ATOM      4  C   ASP A   1      69.599  92.683  15.135  0.00  0.00    +0.225 C 
ATOM      5  O   ASP A   1      70.068  91.902  15.956  0.00  0.00    -0.287 OA
ENDBRANCH   1   4
BRANCH   1   6
ATOM      6  CB  ASP A   1      69.542  94.388  16.974  0.00  0.00    +0.139 C 
BRANCH   6   7
ATOM      7  CG  ASP A   1      70.010  95.794  17.277  0.00  0.00    +0.367 C 
ATOM      8  OD2 ASP A   1      69.167  96.606  17.710  0.00  0.00    -0.246 OA
ATOM      9  OD1 ASP A   1      71.205  96.093  17.062  0.00  0.00    -0.246 OA
ENDBRANCH   6   7
ENDBRANCH   1   6
TORSDOF 4
REMARK  Name = ../refined-set-2016/4ufl/4ufl_pocket.pdb
REMARK  130 active torsions:
REMARK  status: ('A' for Active; 'I' for Inactive)
REMARK    1  A    between atoms: _1  and  _3
REMARK    2  A    between atoms: _3  and  _4
REMARK    3  A    between atoms: _3  and  _6
REMARK    4  A    between atoms: _9  and  _11
REMARK    5  A    between atoms: _11  and  _12
REMARK    6  A    between atoms: _14  and  _16
REMARK    7  A    between atoms: _16  and  _17
REMARK    8  A    between atoms: _19  and  _21
REMARK    9  A    between atoms: _21  and  _22
REMARK   10  A    between atoms: _24  and  _26
REMARK   11  A    between atoms: _26  and  _27
REMARK   12  A    between atoms: _26  and  _29
REMARK   13  A    between atoms: _29  and  _30
REMARK   14  A    between atoms: _33  and  _35
REMARK   15  A    between atoms: _35  and  _36
REMARK   16  A    between atoms: _35  and  _38
REMARK   17  A    between atoms: _38  and  _39
REMARK   18  A    between atoms: _39  and  _40
REMARK   19  A    between atoms: _40  and  _41
REMARK   20  A    between atoms: _41  and  _42
REMARK   21  A    between atoms: _46  and  _48
REMARK   22  A    between atoms: _48  and  _49
REMARK   23  A    between atoms: _48  and  _51
REMARK   24  A    between atoms: _51  and  _52
REMARK   25  A    between atoms: _52  and  _53
REMARK   26  A    between atoms: _56  and  _58
REMARK   27  A    between atoms: _58  and  _59
REMARK   28  A    between atoms: _58  and  _61
REMARK   29  A    between atoms: _61  and  _62
REMARK   30  A    between atoms: _65  and  _67
REMARK   31  A    between atoms: _67  and  _68
REMARK   32  A    between atoms: _67  and  _70
REMARK   33  A    between atoms: _70  and  _71
REMARK   34  A    between atoms: _74  and  _76
REMARK   35  A    between atoms: _76  and  _77
REMARK   36  A    between atoms: _76  and  _79
REMARK   37  A    between atoms: _79  and  _80
REMARK   38  A    between atoms: _83  and  _85
REMARK   39  A    between atoms: _85  and  _86
REMARK   40  A    between atoms: _85  and  _88
REMARK   41  A    between atoms: _88  and  _89
REMARK   42  A    between atoms: _92  and  _94
REMARK   43  A    between atoms: _94  and  _95
REMARK   44  A    between atoms: _94  and  _97
REMARK   45  A    between atoms: _97  and  _98
REMARK   46  A    between atoms: _108  and  _110
REMARK   47  A    between atoms: _110  and  _111
REMARK   48  A    between atoms: _110  and  _113
REMARK   49  A    between atoms: _113  and  _114
REMARK   50  A    between atoms: _119  and  _121
REMARK   51  A    between atoms: _121  and  _122
REMARK   52  A    between atoms: _121  and  _124
REMARK   53  A    between atoms: _124  and  _125
REMARK   54  A    between atoms: _125  and  _126
REMARK   55  A    between atoms: _129  and  _131
REMARK   56  A    between atoms: _131  and  _132
REMARK   57  A    between atoms: _131  and  _134
REMARK   58  A    between atoms: _134  and  _135
REMARK   59  A    between atoms: _135  and  _136
REMARK   60  A    between atoms: _136  and  _137
REMARK   61  A    between atoms: _146  and  _148
REMARK   62  A    between atoms: _148  and  _149
REMARK   63  A    between atoms: _148  and  _151
REMARK   64  A    between atoms: _151  and  _152
REMARK   65  A    between atoms: _155  and  _157
REMARK   66  A    between atoms: _157  and  _158
REMARK   67  A    between atoms: _157  and  _160
REMARK   68  A    between atoms: _160  and  _161
REMARK   69  A    between atoms: _166  and  _168
REMARK   70  A    between atoms: _168  and  _169
REMARK   71  A    between atoms: _168  and  _171
REMARK   72  A    between atoms: _171  and  _172
REMARK   73  A    between atoms: _177  and  _178
REMARK   74  A    between atoms: _180  and  _182
REMARK   75  A    between atoms: _182  and  _183
REMARK   76  A    between atoms: _182  and  _185
REMARK   77  A    between atoms: _185  and  _186
REMARK   78  A    between atoms: _186  and  _187
REMARK   79  A    between atoms: _190  and  _192
REMARK   80  A    between atoms: _192  and  _193
REMARK   81  A    between atoms: _192  and  _195
REMARK   82  A    between atoms: _195  and  _196
REMARK   83  A    between atoms: _199  and  _201
REMARK   84  A    between atoms: _201  and  _202
REMARK   85  A    between atoms: _201  and  _204
REMARK   86  A    between atoms: _204  and  _205
REMARK   87  A    between atoms: _211  and  _213
REMARK   88  A    between atoms: _213  and  _214
REMARK   89  A    between atoms: _213  and  _216
REMARK   90  A    between atoms: _216  and  _217
REMARK   91  A    between atoms: _219  and  _221
REMARK   92  A    between atoms: _221  and  _222
REMARK   93  A    between atoms: _221  and  _224
REMARK   94  A    between atoms: _224  and  _225
REMARK   95  A    between atoms: _228  and  _230
REMARK   96  A    between atoms: _230  and  _231
REMARK   97  A    between atoms: _230  and  _233
REMARK   98  A    between atoms: _233  and  _234
REMARK   99  A    between atoms: _244  and  _246
REMARK  100  A    between atoms: _246  and  _247
REMARK  101  A    between atoms: _246  and  _249
REMARK  102  A    between atoms: _249  and  _250
REMARK  103  A    between atoms: _256  and  _257
REMARK  104  A    between atoms: _262  and  _264
REMARK  105  A    between atoms: _264  and  _265
REMARK  106  A    between atoms: _264  and  _267
REMARK  107  A    between atoms: _267  and  _268
REMARK  108  A    between atoms: _273  and  _274
REMARK  109  A    between atoms: _276  and  _278
REMARK  110  A    between atoms: _278  and  _279
REMARK  111  A    between atoms: _278  and  _281
REMARK  112  A    between atoms: _281  and  _282
REMARK  113  A    between atoms: _284  and  _286
REMARK  114  A    between atoms: _286  and  _287
REMARK  115  A    between atoms: _286  and  _289
REMARK  116  A    between atoms: _289  and  _290
REMARK  117  A    between atoms: _293  and  _295
REMARK  118  A    between atoms: _295  and  _296
REMARK  119  A    between atoms: _295  and  _298
REMARK  120  A    between atoms: _298  and  _299
REMARK  121  A    between atoms: _299  and  _300
REMARK  122  A    between atoms: _300  and  _301
REMARK  123  A    between atoms: _310  and  _312
REMARK  124  A    between atoms: _312  and  _313
REMARK  125  A    between atoms: _312  and  _315
REMARK  126  A    between atoms: _315  and  _316
REMARK  127  A    between atoms: _326  and  _328
REMARK  128  A    between atoms: _328  and  _329
REMARK  129  A    between atoms: _328  and  _331
REMARK  130  A    between atoms: _331  and  _332
REMARK                            x       y       z     vdW  Elec       q    Type
REMARK                         _______ _______ _______ _____ _____    ______ ____
ROOT
ATOM      1  C   HIS A   1      75.152  92.418  11.080  0.00  0.00    +0.239 C 
ATOM      2  N   TYR A   2      76.447  92.734  11.093  0.00  0.00    -0.298 N 
ATOM      3  H   TYR A   2      76.778  93.448  11.773  0.00  0.00    +0.150 HD
ATOM      4  O   HIS A   1      74.657  91.613  10.295  0.00  0.00    -0.274 OA
ENDROOT
BRANCH   1   5
ATOM      5  CA  HIS A   1      74.286  93.076  12.146  0.00  0.00    +0.151 C 
BRANCH   5   6
ATOM      6  N   HIS A   1      73.003  93.574  11.646  0.00  0.00    -0.238 NA
ATOM      7  H   HIS A   1      72.207  92.914  11.529  0.00  0.00    +0.142 HD
ENDBRANCH   5   6
BRANCH   5   8
ATOM      8  CB  HIS A   1      74.053  92.114  13.302  0.00  0.00    +0.074 C 
BRANCH   8   9
ATOM      9  CG  HIS A   1      73.547  92.792  14.532  0.00  0.00    +0.082 A 
ATOM     10  ND1 HIS A   1      73.469  92.166  15.756  0.00  0.00    -0.227 NA
ATOM     11  CE1 HIS A   1      72.984  93.009  16.648  0.00  0.00    +0.199 A 
ATOM     12  NE2 HIS A   1      72.725  94.153  16.042  0.00  0.00    -0.221 NA
ATOM     13  CD2 HIS A   1      73.067  94.043  14.718  0.00  0.00    +0.115 A 
ENDBRANCH   8   9
ENDBRANCH   5   8
ENDBRANCH   1   5
BRANCH   2  14
ATOM     14  CA  TYR A   2      77.429  92.118  10.188  0.00  0.00    +0.141 C 
BRANCH  14  15
ATOM     15  C   TYR A   2      76.963  91.946   8.732  0.00  0.00    +0.227 C 
ATOM     16  O   TYR A   2      77.015  90.849   8.183  0.00  0.00    -0.286 OA
ENDBRANCH  14  15
BRANCH  14  17
ATOM     17  CB  TYR A   2      77.865  90.775  10.781  0.00  0.00    +0.054 C 
BRANCH  17  18
ATOM     18  CG  TYR A   2      78.357  90.939  12.204  0.00  0.00    -0.020 A 
ATOM     19  CD2 TYR A   2      77.498  90.815  13.290  0.00  0.00    -0.001 A 
ATOM     20  CE2 TYR A   2      77.954  91.002  14.582  0.00  0.00    +0.036 A 
ATOM     21  CZ  TYR A   2      79.274  91.333  14.804  0.00  0.00    +0.134 A 
ATOM     22  CE1 TYR A   2      80.138  91.473  13.746  0.00  0.00    +0.036 A 
ATOM     23  CD1 TYR A   2      79.678  91.290  12.453  0.00  0.00    -0.001 A 
BRANCH  21  24
ATOM     24  OH  TYR A   2      79.741  91.523  16.088  0.00  0.00    -0.506 OA
ATOM     25  HH  TYR A   2      79.238  92.261  16.515  0.00  0.00    +0.292 HD
ENDBRANCH  21  24
ENDBRANCH  17  18
ENDBRANCH  14  17
ENDBRANCH   2  14
TORSDOF 9
REMARK  Name = ../refined-set-2016/4ufl/4ufl_pocket.pdb
REMARK  130 active torsions:
REMARK  status: ('A' for Active; 'I' for Inactive)
REMARK    1  A    between atoms: _1  and  _3
REMARK    2  A    between atoms: _3  and  _4
REMARK    3  A    between atoms: _3  and  _6
REMARK    4  A    between atoms: _9  and  _11
REMARK    5  A    between atoms: _11  and  _12
REMARK    6  A    between atoms: _14  and  _16
REMARK    7  A    between atoms: _16  and  _17
REMARK    8  A    between atoms: _19  and  _21
REMARK    9  A    between atoms: _21  and  _22
REMARK   10  A    between atoms: _24  and  _26
REMARK   11  A    between atoms: _26  and  _27
REMARK   12  A    between atoms: _26  and  _29
REMARK   13  A    between atoms: _29  and  _30
REMARK   14  A    between atoms: _33  and  _35
REMARK   15  A    between atoms: _35  and  _36
REMARK   16  A    between atoms: _35  and  _38
REMARK   17  A    between atoms: _38  and  _39
REMARK   18  A    between atoms: _39  and  _40
REMARK   19  A    between atoms: _40  and  _41
REMARK   20  A    between atoms: _41  and  _42
REMARK   21  A    between atoms: _46  and  _48
REMARK   22  A    between atoms: _48  and  _49
REMARK   23  A    between atoms: _48  and  _51
REMARK   24  A    between atoms: _51  and  _52
REMARK   25  A    between atoms: _52  and  _53
REMARK   26  A    between atoms: _56  and  _58
REMARK   27  A    between atoms: _58  and  _59
REMARK   28  A    between atoms: _58  and  _61
REMARK   29  A    between atoms: _61  and  _62
REMARK   30  A    between atoms: _65  and  _67
REMARK   31  A    between atoms: _67  and  _68
REMARK   32  A    between atoms: _67  and  _70
REMARK   33  A    between atoms: _70  and  _71
REMARK   34  A    between atoms: _74  and  _76
REMARK   35  A    between atoms: _76  and  _77
REMARK   36  A    between atoms: _76  and  _79
REMARK   37  A    between atoms: _79  and  _80
REMARK   38  A    between atoms: _83  and  _85
REMARK   39  A    between atoms: _85  and  _86
REMARK   40  A    between atoms: _85  and  _88
REMARK   41  A    between atoms: _88  and  _89
REMARK   42  A    between atoms: _92  and  _94
REMARK   43  A    between atoms: _94  and  _95
REMARK   44  A    between atoms: _94  and  _97
REMARK   45  A    between atoms: _97  and  _98
REMARK   46  A    between atoms: _108  and  _110
REMARK   47  A    between atoms: _110  and  _111
REMARK   48  A    between atoms: _110  and  _113
REMARK   49  A    between atoms: _113  and  _114
REMARK   50  A    between atoms: _119  and  _121
REMARK   51  A    between atoms: _121  and  _122
REMARK   52  A    between atoms: _121  and  _124
REMARK   53  A    between atoms: _124  and  _125
REMARK   54  A    between atoms: _125  and  _126
REMARK   55  A    between atoms: _129  and  _131
REMARK   56  A    between atoms: _131  and  _132
REMARK   57  A    between atoms: _131  and  _134
REMARK   58  A    between atoms: _134  and  _135
REMARK   59  A    between atoms: _135  and  _136
REMARK   60  A    between atoms: _136  and  _137
REMARK   61  A    between atoms: _146  and  _148
REMARK   62  A    between atoms: _148  and  _149
REMARK   63  A    between atoms: _148  and  _151
REMARK   64  A    between atoms: _151  and  _152
REMARK   65  A    between atoms: _155  and  _157
REMARK   66  A    between atoms: _157  and  _158
REMARK   67  A    between atoms: _157  and  _160
REMARK   68  A    between atoms: _160  and  _161
REMARK   69  A    between atoms: _166  and  _168
REMARK   70  A    between atoms: _168  and  _169
REMARK   71  A    between atoms: _168  and  _171
REMARK   72  A    between atoms: _171  and  _172
REMARK   73  A    between atoms: _177  and  _178
REMARK   74  A    between atoms: _180  and  _182
REMARK   75  A    between atoms: _182  and  _183
REMARK   76  A    between atoms: _182  and  _185
REMARK   77  A    between atoms: _185  and  _186
REMARK   78  A    between atoms: _186  and  _187
REMARK   79  A    between atoms: _190  and  _192
REMARK   80  A    between atoms: _192  and  _193
REMARK   81  A    between atoms: _192  and  _195
REMARK   82  A    between atoms: _195  and  _196
REMARK   83  A    between atoms: _199  and  _201
REMARK   84  A    between atoms: _201  and  _202
REMARK   85  A    between atoms: _201  and  _204
REMARK   86  A    between atoms: _204  and  _205
REMARK   87  A    between atoms: _211  and  _213
REMARK   88  A    between atoms: _213  and  _214
REMARK   89  A    between atoms: _213  and  _216
REMARK   90  A    between atoms: _216  and  _217
REMARK   91  A    between atoms: _219  and  _221
REMARK   92  A    between atoms: _221  and  _222
REMARK   93  A    between atoms: _221  and  _224
REMARK   94  A    between atoms: _224  and  _225
REMARK   95  A    between atoms: _228  and  _230
REMARK   96  A    between atoms: _230  and  _231
REMARK   97  A    between atoms: _230  and  _233
REMARK   98  A    between atoms: _233  and  _234
REMARK   99  A    between atoms: _244  and  _246
REMARK  100  A    between atoms: _246  and  _247
REMARK  101  A    between atoms: _246  and  _249
REMARK  102  A    between atoms: _249  and  _250
REMARK  103  A    between atoms: _256  and  _257
REMARK  104  A    between atoms: _262  and  _264
REMARK  105  A    between atoms: _264  and  _265
REMARK  106  A    between atoms: _264  and  _267
REMARK  107  A    between atoms: _267  and  _268
REMARK  108  A    between atoms: _273  and  _274
REMARK  109  A    between atoms: _276  and  _278
REMARK  110  A    between atoms: _278  and  _279
REMARK  111  A    between atoms: _278  and  _281
REMARK  112  A    between atoms: _281  and  _282
REMARK  113  A    between atoms: _284  and  _286
REMARK  114  A    between atoms: _286  and  _287
REMARK  115  A    between atoms: _286  and  _289
REMARK  116  A    between atoms: _289  and  _290
REMARK  117  A    between atoms: _293  and  _295
REMARK  118  A    between atoms: _295  and  _296
REMARK  119  A    between atoms: _295  and  _298
REMARK  120  A    between atoms: _298  and  _299
REMARK  121  A    between atoms: _299  and  _300
REMARK  122  A    between atoms: _300  and  _301
REMARK  123  A    between atoms: _310  and  _312
REMARK  124  A    between atoms: _312  and  _313
REMARK  125  A    between atoms: _312  and  _315
REMARK  126  A    between atoms: _315  and  _316
REMARK  127  A    between atoms: _326  and  _328
REMARK  128  A    between atoms: _328  and  _329
REMARK  129  A    between atoms: _328  and  _331
REMARK  130  A    between atoms: _331  and  _332
REMARK                            x       y       z     vdW  Elec       q    Type
REMARK                         _______ _______ _______ _____ _____    ______ ____
ROOT
ATOM      1  CA  PHE A   3      83.778  94.195  13.700  0.00  0.00    +0.153 C 
ENDROOT
BRANCH   1   2
ATOM      2  C   PHE A   3      83.985  92.811  14.324  0.00  0.00    +0.241 C 
ATOM      3  N   SER A   4      84.078  92.755  15.654  0.00  0.00    -0.295 N 
ATOM      4  H   SER A   4      84.097  93.645  16.192  0.00  0.00    +0.150 HD
ATOM      5  O   PHE A   3      84.081  91.818  13.596  0.00  0.00    -0.273 OA
BRANCH   3   6
ATOM      6  CA  SER A   4      84.154  91.493  16.383  0.00  0.00    +0.178 C 
BRANCH   6   7
ATOM      7  C   SER A   4      85.380  90.720  15.904  0.00  0.00    +0.243 C 
ATOM      8  O   SER A   4      85.375  89.496  15.827  0.00  0.00    -0.273 OA
ATOM      9  N   THR A   5      86.449  91.450  15.604  0.00  0.00    -0.296 N 
ATOM     10  H   THR A   5      86.407  92.486  15.680  0.00  0.00    +0.150 HD
BRANCH   9  11
ATOM     11  CA  THR A   5      87.674  90.805  15.170  0.00  0.00    +0.164 C 
BRANCH  11  12
ATOM     12  C   THR A   5      88.791  91.193  16.125  0.00  0.00    +0.229 C 
ATOM     13  O   THR A   5      88.778  92.279  16.707  0.00  0.00    -0.286 OA
ENDBRANCH  11  12
BRANCH  11  14
ATOM     14  CB  THR A   5      88.023  91.199  13.717  0.00  0.00    +0.136 C 
ATOM     15  CG2 THR A   5      89.130  90.314  13.152  0.00  0.00    +0.034 C 
BRANCH  14  16
ATOM     16  OG1 THR A   5      86.851  91.065  12.901  0.00  0.00    -0.382 OA
ATOM     17  HG1 THR A   5      86.140  91.660  13.247  0.00  0.00    +0.210 HD
ENDBRANCH  14  16
ENDBRANCH  11  14
ENDBRANCH   9  11
ENDBRANCH   6   7
BRANCH   6  18
ATOM     18  CB  SER A   4      82.872  90.668  16.190  0.00  0.00    +0.166 C 
BRANCH  18  19
ATOM     19  OG  SER A   4      82.929  89.418  16.862  0.00  0.00    -0.380 OA
ATOM     20  H   SER A   4      82.085  88.924  16.710  0.00  0.00    +0.211 HD
ENDBRANCH  18  19
ENDBRANCH   6  18
ENDBRANCH   3   6
ENDBRANCH   1   2
BRANCH   1  23
ATOM     21  C   ASP A   2      81.368  94.604  14.010  0.00  0.00    +0.241 C 
ATOM     22  O   ASP A   2      81.423  94.554  15.241  0.00  0.00    -0.273 OA
ATOM     23  N   PHE A   3      82.407  94.370  13.214  0.00  0.00    -0.297 N 
ATOM     24  H   PHE A   3      82.237  94.308  12.190  0.00  0.00    +0.150 HD
BRANCH  21  25
ATOM     25  CA  ASP A   2      80.042  94.885  13.316  0.00  0.00    +0.160 C 
BRANCH  25  27
ATOM     26  C   GLU A   1      77.771  95.126  14.144  0.00  0.00    +0.238 C 
ATOM     27  N   ASP A   2      79.069  95.361  14.293  0.00  0.00    -0.297 N 
ATOM     28  H   ASP A   2      79.399  95.895  15.122  0.00  0.00    +0.150 HD
ATOM     29  O   GLU A   1      77.320  94.515  13.181  0.00  0.00    -0.274 OA
BRANCH  26  30
ATOM     30  CA  GLU A   1      76.833  95.704  15.208  0.00  0.00    +0.145 C 
BRANCH  30  31
ATOM     31  N   GLU A   1      75.794  96.523  14.594  0.00  0.00    -0.238 NA
ATOM     32  H   GLU A   1      75.556  96.378  13.592  0.00  0.00    +0.142 HD
ENDBRANCH  30  31
BRANCH  30  33
ATOM     33  CB  GLU A   1      76.277  94.574  16.073  0.00  0.00    +0.038 C 
BRANCH  33  34
ATOM     34  CG  GLU A   1      77.429  93.916  16.843  0.00  0.00    +0.116 C 
BRANCH  34  35
ATOM     35  CD  GLU A   1      77.009  92.877  17.852  0.00  0.00    +0.365 C 
ATOM     36  OE2 GLU A   1      76.089  93.129  18.657  0.00  0.00    -0.246 OA
ATOM     37  OE1 GLU A   1      77.662  91.821  17.877  0.00  0.00    -0.246 OA
ENDBRANCH  34  35
ENDBRANCH  33  34
ENDBRANCH  30  33
ENDBRANCH  26  30
ENDBRANCH  25  27
BRANCH  25  38
ATOM     38  CB  ASP A   2      80.236  95.915  12.202  0.00  0.00    +0.143 C 
BRANCH  38  39
ATOM     39  CG  ASP A   2      80.206  95.297  10.815  0.00  0.00    +0.367 C 
ATOM     40  OD2 ASP A   2      80.628  94.134  10.666  0.00  0.00    -0.246 OA
ATOM     41  OD1 ASP A   2      79.750  95.980   9.876  0.00  0.00    -0.246 OA
ENDBRANCH  38  39
ENDBRANCH  25  38
ENDBRANCH  21  25
ENDBRANCH   1  23
BRANCH   1  42
ATOM     42  CB  PHE A   3      84.161  95.317  14.678  0.00  0.00    +0.055 C 
BRANCH  42  43
ATOM     43  CG  PHE A   3      85.596  95.281  15.127  0.00  0.00    -0.020 A 
ATOM     44  CD2 PHE A   3      85.919  95.153  16.467  0.00  0.00    -0.004 A 
ATOM     45  CE2 PHE A   3      87.245  95.143  16.875  0.00  0.00    -0.000 A 
ATOM     46  CZ  PHE A   3      88.257  95.284  15.936  0.00  0.00    -0.000 A 
ATOM     47  CE1 PHE A   3      87.942  95.428  14.604  0.00  0.00    -0.000 A 
ATOM     48  CD1 PHE A   3      86.623  95.438  14.207  0.00  0.00    -0.004 A 
ENDBRANCH  42  43
ENDBRANCH   1  42
TORSDOF 21
REMARK  Name = ../refined-set-2016/4ufl/4ufl_pocket.pdb
REMARK  130 active torsions:
REMARK  status: ('A' for Active; 'I' for Inactive)
REMARK    1  A    between atoms: _1  and  _3
REMARK    2  A    between atoms: _3  and  _4
REMARK    3  A    between atoms: _3  and  _6
REMARK    4  A    between atoms: _9  and  _11
REMARK    5  A    between atoms: _11  and  _12
REMARK    6  A    between atoms: _14  and  _16
REMARK    7  A    between atoms: _16  and  _17
REMARK    8  A    between atoms: _19  and  _21
REMARK    9  A    between atoms: _21  and  _22
REMARK   10  A    between atoms: _24  and  _26
REMARK   11  A    between atoms: _26  and  _27
REMARK   12  A    between atoms: _26  and  _29
REMARK   13  A    between atoms: _29  and  _30
REMARK   14  A    between atoms: _33  and  _35
REMARK   15  A    between atoms: _35  and  _36
REMARK   16  A    between atoms: _35  and  _38
REMARK   17  A    between atoms: _38  and  _39
REMARK   18  A    between atoms: _39  and  _40
REMARK   19  A    between atoms: _40  and  _41
REMARK   20  A    between atoms: _41  and  _42
REMARK   21  A    between atoms: _46  and  _48
REMARK   22  A    between atoms: _48  and  _49
REMARK   23  A    between atoms: _48  and  _51
REMARK   24  A    between atoms: _51  and  _52
REMARK   25  A    between atoms: _52  and  _53
REMARK   26  A    between atoms: _56  and  _58
REMARK   27  A    between atoms: _58  and  _59
REMARK   28  A    between atoms: _58  and  _61
REMARK   29  A    between atoms: _61  and  _62
REMARK   30  A    between atoms: _65  and  _67
REMARK   31  A    between atoms: _67  and  _68
REMARK   32  A    between atoms: _67  and  _70
REMARK   33  A    between atoms: _70  and  _71
REMARK   34  A    between atoms: _74  and  _76
REMARK   35  A    between atoms: _76  and  _77
REMARK   36  A    between atoms: _76  and  _79
REMARK   37  A    between atoms: _79  and  _80
REMARK   38  A    between atoms: _83  and  _85
REMARK   39  A    between atoms: _85  and  _86
REMARK   40  A    between atoms: _85  and  _88
REMARK   41  A    between atoms: _88  and  _89
REMARK   42  A    between atoms: _92  and  _94
REMARK   43  A    between atoms: _94  and  _95
REMARK   44  A    between atoms: _94  and  _97
REMARK   45  A    between atoms: _97  and  _98
REMARK   46  A    between atoms: _108  and  _110
REMARK   47  A    between atoms: _110  and  _111
REMARK   48  A    between atoms: _110  and  _113
REMARK   49  A    between atoms: _113  and  _114
REMARK   50  A    between atoms: _119  and  _121
REMARK   51  A    between atoms: _121  and  _122
REMARK   52  A    between atoms: _121  and  _124
REMARK   53  A    between atoms: _124  and  _125
REMARK   54  A    between atoms: _125  and  _126
REMARK   55  A    between atoms: _129  and  _131
REMARK   56  A    between atoms: _131  and  _132
REMARK   57  A    between atoms: _131  and  _134
REMARK   58  A    between atoms: _134  and  _135
REMARK   59  A    between atoms: _135  and  _136
REMARK   60  A    between atoms: _136  and  _137
REMARK   61  A    between atoms: _146  and  _148
REMARK   62  A    between atoms: _148  and  _149
REMARK   63  A    between atoms: _148  and  _151
REMARK   64  A    between atoms: _151  and  _152
REMARK   65  A    between atoms: _155  and  _157
REMARK   66  A    between atoms: _157  and  _158
REMARK   67  A    between atoms: _157  and  _160
REMARK   68  A    between atoms: _160  and  _161
REMARK   69  A    between atoms: _166  and  _168
REMARK   70  A    between atoms: _168  and  _169
REMARK   71  A    between atoms: _168  and  _171
REMARK   72  A    between atoms: _171  and  _172
REMARK   73  A    between atoms: _177  and  _178
REMARK   74  A    between atoms: _180  and  _182
REMARK   75  A    between atoms: _182  and  _183
REMARK   76  A    between atoms: _182  and  _185
REMARK   77  A    between atoms: _185  and  _186
REMARK   78  A    between atoms: _186  and  _187
REMARK   79  A    between atoms: _190  and  _192
REMARK   80  A    between atoms: _192  and  _193
REMARK   81  A    between atoms: _192  and  _195
REMARK   82  A    between atoms: _195  and  _196
REMARK   83  A    between atoms: _199  and  _201
REMARK   84  A    between atoms: _201  and  _202
REMARK   85  A    between atoms: _201  and  _204
REMARK   86  A    between atoms: _204  and  _205
REMARK   87  A    between atoms: _211  and  _213
REMARK   88  A    between atoms: _213  and  _214
REMARK   89  A    between atoms: _213  and  _216
REMARK   90  A    between atoms: _216  and  _217
REMARK   91  A    between atoms: _219  and  _221
REMARK   92  A    between atoms: _221  and  _222
REMARK   93  A    between atoms: _221  and  _224
REMARK   94  A    between atoms: _224  and  _225
REMARK   95  A    between atoms: _228  and  _230
REMARK   96  A    between atoms: _230  and  _231
REMARK   97  A    between atoms: _230  and  _233
REMARK   98  A    between atoms: _233  and  _234
REMARK   99  A    between atoms: _244  and  _246
REMARK  100  A    between atoms: _246  and  _247
REMARK  101  A    between atoms: _246  and  _249
REMARK  102  A    between atoms: _249  and  _250
REMARK  103  A    between atoms: _256  and  _257
REMARK  104  A    between atoms: _262  and  _264
REMARK  105  A    between atoms: _264  and  _265
REMARK  106  A    between atoms: _264  and  _267
REMARK  107  A    between atoms: _267  and  _268
REMARK  108  A    between atoms: _273  and  _274
REMARK  109  A    between atoms: _276  and  _278
REMARK  110  A    between atoms: _278  and  _279
REMARK  111  A    between atoms: _278  and  _281
REMARK  112  A    between atoms: _281  and  _282
REMARK  113  A    between atoms: _284  and  _286
REMARK  114  A    between atoms: _286  and  _287
REMARK  115  A    between atoms: _286  and  _289
REMARK  116  A    between atoms: _289  and  _290
REMARK  117  A    between atoms: _293  and  _295
REMARK  118  A    between atoms: _295  and  _296
REMARK  119  A    between atoms: _295  and  _298
REMARK  120  A    between atoms: _298  and  _299
REMARK  121  A    between atoms: _299  and  _300
REMARK  122  A    between atoms: _300  and  _301
REMARK  123  A    between atoms: _310  and  _312
REMARK  124  A    between atoms: _312  and  _313
REMARK  125  A    between atoms: _312  and  _315
REMARK  126  A    between atoms: _315  and  _316
REMARK  127  A    between atoms: _326  and  _328
REMARK  128  A    between atoms: _328  and  _329
REMARK  129  A    between atoms: _328  and  _331
REMARK  130  A    between atoms: _331  and  _332
REMARK                            x       y       z     vdW  Elec       q    Type
REMARK                         _______ _______ _______ _____ _____    ______ ____
ROOT
ATOM      1  CA  TRP A   1      81.432  94.934  19.052  0.00  0.00    +0.149 C 
ENDROOT
BRANCH   1   2
ATOM      2  C   TRP A   1      82.890  94.490  19.121  0.00  0.00    +0.239 C 
ATOM      3  N   ASN A   2      83.624  94.839  20.184  0.00  0.00    -0.298 N 
ATOM      4  H   ASN A   2      84.630  94.574  20.192  0.00  0.00    +0.150 HD
ATOM      5  O   TRP A   1      83.348  93.831  18.199  0.00  0.00    -0.274 OA
BRANCH   3   6
ATOM      6  CA  ASN A   2      83.098  95.568  21.332  0.00  0.00    +0.146 C 
BRANCH   6   7
ATOM      7  C   ASN A   2      83.974  96.770  21.671  0.00  0.00    +0.227 C 
ATOM      8  O   ASN A   2      85.012  96.983  21.048  0.00  0.00    -0.286 OA
ENDBRANCH   6   7
BRANCH   6   9
ATOM      9  CB  ASN A   2      83.000  94.661  22.569  0.00  0.00    +0.112 C 
BRANCH   9  10
ATOM     10  CG  ASN A   2      84.312  93.939  22.887  0.00  0.00    +0.222 C 
ATOM     11  OD1 ASN A   2      85.250  94.544  23.395  0.00  0.00    -0.275 OA
ATOM     12  ND2 ASN A   2      84.356  92.635  22.638  0.00  0.00    -0.329 N 
ATOM     13 HD21 ASN A   2      85.209  92.089  22.875  0.00  0.00    +0.145 HD
ATOM     14 HD22 ASN A   2      83.538  92.160  22.206  0.00  0.00    +0.145 HD
ENDBRANCH   9  10
ENDBRANCH   6   9
ENDBRANCH   3   6
ENDBRANCH   1   2
BRANCH   1  15
ATOM     15  N   TRP A   1      81.288  95.820  17.914  0.00  0.00    -0.238 NA
ATOM     16  H   TRP A   1      81.098  95.416  16.975  0.00  0.00    +0.142 HD
ENDBRANCH   1  15
BRANCH   1  17
ATOM     17  CB  TRP A   1      80.495  93.733  18.936  0.00  0.00    +0.054 C 
BRANCH  17  18
ATOM     18  CG  TRP A   1      80.476  92.925  20.186  0.00  0.00    -0.002 A 
ATOM     19  CD1 TRP A   1      79.686  93.124  21.278  0.00  0.00    +0.068 A 
ATOM     20  NE1 TRP A   1      79.963  92.180  22.242  0.00  0.00    -0.352 N 
ATOM     21  HE1 TRP A   1      79.508  92.116  23.175  0.00  0.00    +0.166 HD
ATOM     22  CE2 TRP A   1      80.936  91.340  21.769  0.00  0.00    +0.056 A 
ATOM     23  CZ2 TRP A   1      81.536  90.237  22.368  0.00  0.00    +0.017 A 
ATOM     24  CH2 TRP A   1      82.494  89.576  21.649  0.00  0.00    +0.001 A 
ATOM     25  CZ3 TRP A   1      82.858  89.988  20.357  0.00  0.00    +0.000 A 
ATOM     26  CE3 TRP A   1      82.263  91.080  19.763  0.00  0.00    +0.001 A 
ATOM     27  CD2 TRP A   1      81.280  91.776  20.472  0.00  0.00    +0.013 A 
ENDBRANCH  17  18
ENDBRANCH   1  17
TORSDOF 8
REMARK  Name = ../refined-set-2016/4ufl/4ufl_pocket.pdb
REMARK  130 active torsions:
REMARK  status: ('A' for Active; 'I' for Inactive)
REMARK    1  A    between atoms: _1  and  _3
REMARK    2  A    between atoms: _3  and  _4
REMARK    3  A    between atoms: _3  and  _6
REMARK    4  A    between atoms: _9  and  _11
REMARK    5  A    between atoms: _11  and  _12
REMARK    6  A    between atoms: _14  and  _16
REMARK    7  A    between atoms: _16  and  _17
REMARK    8  A    between atoms: _19  and  _21
REMARK    9  A    between atoms: _21  and  _22
REMARK   10  A    between atoms: _24  and  _26
REMARK   11  A    between atoms: _26  and  _27
REMARK   12  A    between atoms: _26  and  _29
REMARK   13  A    between atoms: _29  and  _30
REMARK   14  A    between atoms: _33  and  _35
REMARK   15  A    between atoms: _35  and  _36
REMARK   16  A    between atoms: _35  and  _38
REMARK   17  A    between atoms: _38  and  _39
REMARK   18  A    between atoms: _39  and  _40
REMARK   19  A    between atoms: _40  and  _41
REMARK   20  A    between atoms: _41  and  _42
REMARK   21  A    between atoms: _46  and  _48
REMARK   22  A    between atoms: _48  and  _49
REMARK   23  A    between atoms: _48  and  _51
REMARK   24  A    between atoms: _51  and  _52
REMARK   25  A    between atoms: _52  and  _53
REMARK   26  A    between atoms: _56  and  _58
REMARK   27  A    between atoms: _58  and  _59
REMARK   28  A    between atoms: _58  and  _61
REMARK   29  A    between atoms: _61  and  _62
REMARK   30  A    between atoms: _65  and  _67
REMARK   31  A    between atoms: _67  and  _68
REMARK   32  A    between atoms: _67  and  _70
REMARK   33  A    between atoms: _70  and  _71
REMARK   34  A    between atoms: _74  and  _76
REMARK   35  A    between atoms: _76  and  _77
REMARK   36  A    between atoms: _76  and  _79
REMARK   37  A    between atoms: _79  and  _80
REMARK   38  A    between atoms: _83  and  _85
REMARK   39  A    between atoms: _85  and  _86
REMARK   40  A    between atoms: _85  and  _88
REMARK   41  A    between atoms: _88  and  _89
REMARK   42  A    between atoms: _92  and  _94
REMARK   43  A    between atoms: _94  and  _95
REMARK   44  A    between atoms: _94  and  _97
REMARK   45  A    between atoms: _97  and  _98
REMARK   46  A    between atoms: _108  and  _110
REMARK   47  A    between atoms: _110  and  _111
REMARK   48  A    between atoms: _110  and  _113
REMARK   49  A    between atoms: _113  and  _114
REMARK   50  A    between atoms: _119  and  _121
REMARK   51  A    between atoms: _121  and  _122
REMARK   52  A    between atoms: _121  and  _124
REMARK   53  A    between atoms: _124  and  _125
REMARK   54  A    between atoms: _125  and  _126
REMARK   55  A    between atoms: _129  and  _131
REMARK   56  A    between atoms: _131  and  _132
REMARK   57  A    between atoms: _131  and  _134
REMARK   58  A    between atoms: _134  and  _135
REMARK   59  A    between atoms: _135  and  _136
REMARK   60  A    between atoms: _136  and  _137
REMARK   61  A    between atoms: _146  and  _148
REMARK   62  A    between atoms: _148  and  _149
REMARK   63  A    between atoms: _148  and  _151
REMARK   64  A    between atoms: _151  and  _152
REMARK   65  A    between atoms: _155  and  _157
REMARK   66  A    between atoms: _157  and  _158
REMARK   67  A    between atoms: _157  and  _160
REMARK   68  A    between atoms: _160  and  _161
REMARK   69  A    between atoms: _166  and  _168
REMARK   70  A    between atoms: _168  and  _169
REMARK   71  A    between atoms: _168  and  _171
REMARK   72  A    between atoms: _171  and  _172
REMARK   73  A    between atoms: _177  and  _178
REMARK   74  A    between atoms: _180  and  _182
REMARK   75  A    between atoms: _182  and  _183
REMARK   76  A    between atoms: _182  and  _185
REMARK   77  A    between atoms: _185  and  _186
REMARK   78  A    between atoms: _186  and  _187
REMARK   79  A    between atoms: _190  and  _192
REMARK   80  A    between atoms: _192  and  _193
REMARK   81  A    between atoms: _192  and  _195
REMARK   82  A    between atoms: _195  and  _196
REMARK   83  A    between atoms: _199  and  _201
REMARK   84  A    between atoms: _201  and  _202
REMARK   85  A    between atoms: _201  and  _204
REMARK   86  A    between atoms: _204  and  _205
REMARK   87  A    between atoms: _211  and  _213
REMARK   88  A    between atoms: _213  and  _214
REMARK   89  A    between atoms: _213  and  _216
REMARK   90  A    between atoms: _216  and  _217
REMARK   91  A    between atoms: _219  and  _221
REMARK   92  A    between atoms: _221  and  _222
REMARK   93  A    between atoms: _221  and  _224
REMARK   94  A    between atoms: _224  and  _225
REMARK   95  A    between atoms: _228  and  _230
REMARK   96  A    between atoms: _230  and  _231
REMARK   97  A    between atoms: _230  and  _233
REMARK   98  A    between atoms: _233  and  _234
REMARK   99  A    between atoms: _244  and  _246
REMARK  100  A    between atoms: _246  and  _247
REMARK  101  A    between atoms: _246  and  _249
REMARK  102  A    between atoms: _249  and  _250
REMARK  103  A    between atoms: _256  and  _257
REMARK  104  A    between atoms: _262  and  _264
REMARK  105  A    between atoms: _264  and  _265
REMARK  106  A    between atoms: _264  and  _267
REMARK  107  A    between atoms: _267  and  _268
REMARK  108  A    between atoms: _273  and  _274
REMARK  109  A    between atoms: _276  and  _278
REMARK  110  A    between atoms: _278  and  _279
REMARK  111  A    between atoms: _278  and  _281
REMARK  112  A    between atoms: _281  and  _282
REMARK  113  A    between atoms: _284  and  _286
REMARK  114  A    between atoms: _286  and  _287
REMARK  115  A    between atoms: _286  and  _289
REMARK  116  A    between atoms: _289  and  _290
REMARK  117  A    between atoms: _293  and  _295
REMARK  118  A    between atoms: _295  and  _296
REMARK  119  A    between atoms: _295  and  _298
REMARK  120  A    between atoms: _298  and  _299
REMARK  121  A    between atoms: _299  and  _300
REMARK  122  A    between atoms: _300  and  _301
REMARK  123  A    between atoms: _310  and  _312
REMARK  124  A    between atoms: _312  and  _313
REMARK  125  A    between atoms: _312  and  _315
REMARK  126  A    between atoms: _315  and  _316
REMARK  127  A    between atoms: _326  and  _328
REMARK  128  A    between atoms: _328  and  _329
REMARK  129  A    between atoms: _328  and  _331
REMARK  130  A    between atoms: _331  and  _332
REMARK                            x       y       z     vdW  Elec       q    Type
REMARK                         _______ _______ _______ _____ _____    ______ ____
ROOT
ATOM      1  CA  TYR A   2      86.133  86.097  20.907  0.00  0.00    +0.141 C 
ENDROOT
BRANCH   1   4
ATOM      2  C   PRO A   1      85.187  84.927  22.843  0.00  0.00    +0.239 C 
ATOM      3  O   PRO A   1      84.936  85.972  23.433  0.00  0.00    -0.274 OA
ATOM      4  N   TYR A   2      85.783  84.886  21.651  0.00  0.00    -0.298 N 
ATOM      5  H   TYR A   2      86.007  83.960  21.235  0.00  0.00    +0.150 HD
BRANCH   2  10
ATOM      6  N   PRO A   1      85.182  83.430  24.921  0.00  0.00    -0.210 NA
ATOM      7  CD  PRO A   1      84.065  82.836  25.678  0.00  0.00    +0.089 C 
ATOM      8  CG  PRO A   1      83.095  82.440  24.617  0.00  0.00    +0.021 C 
ATOM      9  CB  PRO A   1      83.360  83.296  23.428  0.00  0.00    +0.028 C 
ATOM     10  CA  PRO A   1      84.867  83.571  23.482  0.00  0.00    +0.149 C 
ENDBRANCH   2  10
ENDBRANCH   1   4
BRANCH   1  11
ATOM     11  C   TYR A   2      87.040  87.012  21.700  0.00  0.00    +0.227 C 
ATOM     12  O   TYR A   2      86.793  88.211  21.746  0.00  0.00    -0.286 OA
ENDBRANCH   1  11
BRANCH   1  13
ATOM     13  CB  TYR A   2      84.871  86.896  20.528  0.00  0.00    +0.054 C 
BRANCH  13  14
ATOM     14  CG  TYR A   2      83.854  86.167  19.695  0.00  0.00    -0.020 A 
ATOM     15  CD2 TYR A   2      82.657  85.717  20.243  0.00  0.00    -0.001 A 
ATOM     16  CE2 TYR A   2      81.741  85.038  19.473  0.00  0.00    +0.036 A 
ATOM     17  CZ  TYR A   2      82.024  84.800  18.142  0.00  0.00    +0.134 A 
ATOM     18  CE1 TYR A   2      83.198  85.228  17.587  0.00  0.00    +0.036 A 
ATOM     19  CD1 TYR A   2      84.108  85.896  18.361  0.00  0.00    -0.001 A 
BRANCH  17  20
ATOM     20  OH  TYR A   2      81.129  84.135  17.346  0.00  0.00    -0.506 OA
ATOM     21  HH  TYR A   2      81.498  84.057  16.431  0.00  0.00    +0.292 HD
ENDBRANCH  17  20
ENDBRANCH  13  14
ENDBRANCH   1  13
TORSDOF 6
REMARK  Name = ../refined-set-2016/4ufl/4ufl_pocket.pdb
REMARK  130 active torsions:
REMARK  status: ('A' for Active; 'I' for Inactive)
REMARK    1  A    between atoms: _1  and  _3
REMARK    2  A    between atoms: _3  and  _4
REMARK    3  A    between atoms: _3  and  _6
REMARK    4  A    between atoms: _9  and  _11
REMARK    5  A    between atoms: _11  and  _12
REMARK    6  A    between atoms: _14  and  _16
REMARK    7  A    between atoms: _16  and  _17
REMARK    8  A    between atoms: _19  and  _21
REMARK    9  A    between atoms: _21  and  _22
REMARK   10  A    between atoms: _24  and  _26
REMARK   11  A    between atoms: _26  and  _27
REMARK   12  A    between atoms: _26  and  _29
REMARK   13  A    between atoms: _29  and  _30
REMARK   14  A    between atoms: _33  and  _35
REMARK   15  A    between atoms: _35  and  _36
REMARK   16  A    between atoms: _35  and  _38
REMARK   17  A    between atoms: _38  and  _39
REMARK   18  A    between atoms: _39  and  _40
REMARK   19  A    between atoms: _40  and  _41
REMARK   20  A    between atoms: _41  and  _42
REMARK   21  A    between atoms: _46  and  _48
REMARK   22  A    between atoms: _48  and  _49
REMARK   23  A    between atoms: _48  and  _51
REMARK   24  A    between atoms: _51  and  _52
REMARK   25  A    between atoms: _52  and  _53
REMARK   26  A    between atoms: _56  and  _58
REMARK   27  A    between atoms: _58  and  _59
REMARK   28  A    between atoms: _58  and  _61
REMARK   29  A    between atoms: _61  and  _62
REMARK   30  A    between atoms: _65  and  _67
REMARK   31  A    between atoms: _67  and  _68
REMARK   32  A    between atoms: _67  and  _70
REMARK   33  A    between atoms: _70  and  _71
REMARK   34  A    between atoms: _74  and  _76
REMARK   35  A    between atoms: _76  and  _77
REMARK   36  A    between atoms: _76  and  _79
REMARK   37  A    between atoms: _79  and  _80
REMARK   38  A    between atoms: _83  and  _85
REMARK   39  A    between atoms: _85  and  _86
REMARK   40  A    between atoms: _85  and  _88
REMARK   41  A    between atoms: _88  and  _89
REMARK   42  A    between atoms: _92  and  _94
REMARK   43  A    between atoms: _94  and  _95
REMARK   44  A    between atoms: _94  and  _97
REMARK   45  A    between atoms: _97  and  _98
REMARK   46  A    between atoms: _108  and  _110
REMARK   47  A    between atoms: _110  and  _111
REMARK   48  A    between atoms: _110  and  _113
REMARK   49  A    between atoms: _113  and  _114
REMARK   50  A    between atoms: _119  and  _121
REMARK   51  A    between atoms: _121  and  _122
REMARK   52  A    between atoms: _121  and  _124
REMARK   53  A    between atoms: _124  and  _125
REMARK   54  A    between atoms: _125  and  _126
REMARK   55  A    between atoms: _129  and  _131
REMARK   56  A    between atoms: _131  and  _132
REMARK   57  A    between atoms: _131  and  _134
REMARK   58  A    between atoms: _134  and  _135
REMARK   59  A    between atoms: _135  and  _136
REMARK   60  A    between atoms: _136  and  _137
REMARK   61  A    between atoms: _146  and  _148
REMARK   62  A    between atoms: _148  and  _149
REMARK   63  A    between atoms: _148  and  _151
REMARK   64  A    between atoms: _151  and  _152
REMARK   65  A    between atoms: _155  and  _157
REMARK   66  A    between atoms: _157  and  _158
REMARK   67  A    between atoms: _157  and  _160
REMARK   68  A    between atoms: _160  and  _161
REMARK   69  A    between atoms: _166  and  _168
REMARK   70  A    between atoms: _168  and  _169
REMARK   71  A    between atoms: _168  and  _171
REMARK   72  A    between atoms: _171  and  _172
REMARK   73  A    between atoms: _177  and  _178
REMARK   74  A    between atoms: _180  and  _182
REMARK   75  A    between atoms: _182  and  _183
REMARK   76  A    between atoms: _182  and  _185
REMARK   77  A    between atoms: _185  and  _186
REMARK   78  A    between atoms: _186  and  _187
REMARK   79  A    between atoms: _190  and  _192
REMARK   80  A    between atoms: _192  and  _193
REMARK   81  A    between atoms: _192  and  _195
REMARK   82  A    between atoms: _195  and  _196
REMARK   83  A    between atoms: _199  and  _201
REMARK   84  A    between atoms: _201  and  _202
REMARK   85  A    between atoms: _201  and  _204
REMARK   86  A    between atoms: _204  and  _205
REMARK   87  A    between atoms: _211  and  _213
REMARK   88  A    between atoms: _213  and  _214
REMARK   89  A    between atoms: _213  and  _216
REMARK   90  A    between atoms: _216  and  _217
REMARK   91  A    between atoms: _219  and  _221
REMARK   92  A    between atoms: _221  and  _222
REMARK   93  A    between atoms: _221  and  _224
REMARK   94  A    between atoms: _224  and  _225
REMARK   95  A    between atoms: _228  and  _230
REMARK   96  A    between atoms: _230  and  _231
REMARK   97  A    between atoms: _230  and  _233
REMARK   98  A    between atoms: _233  and  _234
REMARK   99  A    between atoms: _244  and  _246
REMARK  100  A    between atoms: _246  and  _247
REMARK  101  A    between atoms: _246  and  _249
REMARK  102  A    between atoms: _249  and  _250
REMARK  103  A    between atoms: _256  and  _257
REMARK  104  A    between atoms: _262  and  _264
REMARK  105  A    between atoms: _264  and  _265
REMARK  106  A    between atoms: _264  and  _267
REMARK  107  A    between atoms: _267  and  _268
REMARK  108  A    between atoms: _273  and  _274
REMARK  109  A    between atoms: _276  and  _278
REMARK  110  A    between atoms: _278  and  _279
REMARK  111  A    between atoms: _278  and  _281
REMARK  112  A    between atoms: _281  and  _282
REMARK  113  A    between atoms: _284  and  _286
REMARK  114  A    between atoms: _286  and  _287
REMARK  115  A    between atoms: _286  and  _289
REMARK  116  A    between atoms: _289  and  _290
REMARK  117  A    between atoms: _293  and  _295
REMARK  118  A    between atoms: _295  and  _296
REMARK  119  A    between atoms: _295  and  _298
REMARK  120  A    between atoms: _298  and  _299
REMARK  121  A    between atoms: _299  and  _300
REMARK  122  A    between atoms: _300  and  _301
REMARK  123  A    between atoms: _310  and  _312
REMARK  124  A    between atoms: _312  and  _313
REMARK  125  A    between atoms: _312  and  _315
REMARK  126  A    between atoms: _315  and  _316
REMARK  127  A    between atoms: _326  and  _328
REMARK  128  A    between atoms: _328  and  _329
REMARK  129  A    between atoms: _328  and  _331
REMARK  130  A    between atoms: _331  and  _332
REMARK                            x       y       z     vdW  Elec       q    Type
REMARK                         _______ _______ _______ _____ _____    ______ ____
ROOT
ATOM      1  CA  SER A   1      87.893  91.947  20.025  0.00  0.00    +0.163 C 
ENDROOT
BRANCH   1   2
ATOM      2  N   SER A   1      88.583  91.446  21.203  0.00  0.00    -0.237 NA
ATOM      3  H   SER A   1      88.041  91.229  22.064  0.00  0.00    +0.142 HD
ENDBRANCH   1   2
BRANCH   1   4
ATOM      4  CB  SER A   1      87.200  93.236  20.365  0.00  0.00    +0.227 C 
ATOM      5  OG  SER A   1      86.063  93.481  19.965  0.00  0.00    -0.287 OA
ENDBRANCH   1   4
BRANCH   1   6
ATOM      6  C   SER A   1      86.879  90.920  19.487  0.00  0.00    +0.162 C 
BRANCH   6   7
ATOM      7  O   SER A   1      87.506  89.704  19.176  0.00  0.00    -0.380 OA
ATOM      8  H   SER A   1      87.929  89.334  19.991  0.00  0.00    +0.211 HD
ENDBRANCH   6   7
ENDBRANCH   1   6
TORSDOF 4
REMARK  Name = ../refined-set-2016/4ufl/4ufl_pocket.pdb
REMARK  130 active torsions:
REMARK  status: ('A' for Active; 'I' for Inactive)
REMARK    1  A    between atoms: _1  and  _3
REMARK    2  A    between atoms: _3  and  _4
REMARK    3  A    between atoms: _3  and  _6
REMARK    4  A    between atoms: _9  and  _11
REMARK    5  A    between atoms: _11  and  _12
REMARK    6  A    between atoms: _14  and  _16
REMARK    7  A    between atoms: _16  and  _17
REMARK    8  A    between atoms: _19  and  _21
REMARK    9  A    between atoms: _21  and  _22
REMARK   10  A    between atoms: _24  and  _26
REMARK   11  A    between atoms: _26  and  _27
REMARK   12  A    between atoms: _26  and  _29
REMARK   13  A    between atoms: _29  and  _30
REMARK   14  A    between atoms: _33  and  _35
REMARK   15  A    between atoms: _35  and  _36
REMARK   16  A    between atoms: _35  and  _38
REMARK   17  A    between atoms: _38  and  _39
REMARK   18  A    between atoms: _39  and  _40
REMARK   19  A    between atoms: _40  and  _41
REMARK   20  A    between atoms: _41  and  _42
REMARK   21  A    between atoms: _46  and  _48
REMARK   22  A    between atoms: _48  and  _49
REMARK   23  A    between atoms: _48  and  _51
REMARK   24  A    between atoms: _51  and  _52
REMARK   25  A    between atoms: _52  and  _53
REMARK   26  A    between atoms: _56  and  _58
REMARK   27  A    between atoms: _58  and  _59
REMARK   28  A    between atoms: _58  and  _61
REMARK   29  A    between atoms: _61  and  _62
REMARK   30  A    between atoms: _65  and  _67
REMARK   31  A    between atoms: _67  and  _68
REMARK   32  A    between atoms: _67  and  _70
REMARK   33  A    between atoms: _70  and  _71
REMARK   34  A    between atoms: _74  and  _76
REMARK   35  A    between atoms: _76  and  _77
REMARK   36  A    between atoms: _76  and  _79
REMARK   37  A    between atoms: _79  and  _80
REMARK   38  A    between atoms: _83  and  _85
REMARK   39  A    between atoms: _85  and  _86
REMARK   40  A    between atoms: _85  and  _88
REMARK   41  A    between atoms: _88  and  _89
REMARK   42  A    between atoms: _92  and  _94
REMARK   43  A    between atoms: _94  and  _95
REMARK   44  A    between atoms: _94  and  _97
REMARK   45  A    between atoms: _97  and  _98
REMARK   46  A    between atoms: _108  and  _110
REMARK   47  A    between atoms: _110  and  _111
REMARK   48  A    between atoms: _110  and  _113
REMARK   49  A    between atoms: _113  and  _114
REMARK   50  A    between atoms: _119  and  _121
REMARK   51  A    between atoms: _121  and  _122
REMARK   52  A    between atoms: _121  and  _124
REMARK   53  A    between atoms: _124  and  _125
REMARK   54  A    between atoms: _125  and  _126
REMARK   55  A    between atoms: _129  and  _131
REMARK   56  A    between atoms: _131  and  _132
REMARK   57  A    between atoms: _131  and  _134
REMARK   58  A    between atoms: _134  and  _135
REMARK   59  A    between atoms: _135  and  _136
REMARK   60  A    between atoms: _136  and  _137
REMARK   61  A    between atoms: _146  and  _148
REMARK   62  A    between atoms: _148  and  _149
REMARK   63  A    between atoms: _148  and  _151
REMARK   64  A    between atoms: _151  and  _152
REMARK   65  A    between atoms: _155  and  _157
REMARK   66  A    between atoms: _157  and  _158
REMARK   67  A    between atoms: _157  and  _160
REMARK   68  A    between atoms: _160  and  _161
REMARK   69  A    between atoms: _166  and  _168
REMARK   70  A    between atoms: _168  and  _169
REMARK   71  A    between atoms: _168  and  _171
REMARK   72  A    between atoms: _171  and  _172
REMARK   73  A    between atoms: _177  and  _178
REMARK   74  A    between atoms: _180  and  _182
REMARK   75  A    between atoms: _182  and  _183
REMARK   76  A    between atoms: _182  and  _185
REMARK   77  A    between atoms: _185  and  _186
REMARK   78  A    between atoms: _186  and  _187
REMARK   79  A    between atoms: _190  and  _192
REMARK   80  A    between atoms: _192  and  _193
REMARK   81  A    between atoms: _192  and  _195
REMARK   82  A    between atoms: _195  and  _196
REMARK   83  A    between atoms: _199  and  _201
REMARK   84  A    between atoms: _201  and  _202
REMARK   85  A    between atoms: _201  and  _204
REMARK   86  A    between atoms: _204  and  _205
REMARK   87  A    between atoms: _211  and  _213
REMARK   88  A    between atoms: _213  and  _214
REMARK   89  A    between atoms: _213  and  _216
REMARK   90  A    between atoms: _216  and  _217
REMARK   91  A    between atoms: _219  and  _221
REMARK   92  A    between atoms: _221  and  _222
REMARK   93  A    between atoms: _221  and  _224
REMARK   94  A    between atoms: _224  and  _225
REMARK   95  A    between atoms: _228  and  _230
REMARK   96  A    between atoms: _230  and  _231
REMARK   97  A    between atoms: _230  and  _233
REMARK   98  A    between atoms: _233  and  _234
REMARK   99  A    between atoms: _244  and  _246
REMARK  100  A    between atoms: _246  and  _247
REMARK  101  A    between atoms: _246  and  _249
REMARK  102  A    between atoms: _249  and  _250
REMARK  103  A    between atoms: _256  and  _257
REMARK  104  A    between atoms: _262  and  _264
REMARK  105  A    between atoms: _264  and  _265
REMARK  106  A    between atoms: _264  and  _267
REMARK  107  A    between atoms: _267  and  _268
REMARK  108  A    between atoms: _273  and  _274
REMARK  109  A    between atoms: _276  and  _278
REMARK  110  A    between atoms: _278  and  _279
REMARK  111  A    between atoms: _278  and  _281
REMARK  112  A    between atoms: _281  and  _282
REMARK  113  A    between atoms: _284  and  _286
REMARK  114  A    between atoms: _286  and  _287
REMARK  115  A    between atoms: _286  and  _289
REMARK  116  A    between atoms: _289  and  _290
REMARK  117  A    between atoms: _293  and  _295
REMARK  118  A    between atoms: _295  and  _296
REMARK  119  A    between atoms: _295  and  _298
REMARK  120  A    between atoms: _298  and  _299
REMARK  121  A    between atoms: _299  and  _300
REMARK  122  A    between atoms: _300  and  _301
REMARK  123  A    between atoms: _310  and  _312
REMARK  124  A    between atoms: _312  and  _313
REMARK  125  A    between atoms: _312  and  _315
REMARK  126  A    between atoms: _315  and  _316
REMARK  127  A    between atoms: _326  and  _328
REMARK  128  A    between atoms: _328  and  _329
REMARK  129  A    between atoms: _328  and  _331
REMARK  130  A    between atoms: _331  and  _332
REMARK                            x       y       z     vdW  Elec       q    Type
REMARK                         _______ _______ _______ _____ _____    ______ ____
ROOT
ATOM      1  CA  ARG A   2      81.733  87.981   9.451  0.00  0.00    +0.137 C 
ENDROOT
BRANCH   1   3
ATOM      2  C   ILE A   1      83.892  87.078  10.089  0.00  0.00    +0.238 C 
ATOM      3  N   ARG A   2      83.078  88.122   9.986  0.00  0.00    -0.298 N 
ATOM      4  H   ARG A   2      83.409  89.059  10.294  0.00  0.00    +0.150 HD
ATOM      5  O   ILE A   1      83.585  85.956   9.699  0.00  0.00    -0.274 OA
BRANCH   2   6
ATOM      6  CA  ILE A   1      85.254  87.321  10.720  0.00  0.00    +0.145 C 
BRANCH   6   7
ATOM      7  N   ILE A   1      85.703  88.687  10.555  0.00  0.00    -0.238 NA
ATOM      8  H   ILE A   1      85.651  89.359  11.347  0.00  0.00    +0.142 HD
ENDBRANCH   6   7
BRANCH   6   9
ATOM      9  CB  ILE A   1      85.185  86.935  12.195  0.00  0.00    +0.025 C 
ATOM     10  CG2 ILE A   1      86.548  87.118  12.840  0.00  0.00    +0.002 C 
BRANCH   9  11
ATOM     11  CG1 ILE A   1      84.122  87.765  12.910  0.00  0.00    +0.002 C 
ATOM     12  CD1 ILE A   1      83.852  87.311  14.315  0.00  0.00    +0.000 C 
ENDBRANCH   9  11
ENDBRANCH   6   9
ENDBRANCH   2   6
ENDBRANCH   1   3
BRANCH   1  13
ATOM     13  C   ARG A   2      81.293  89.133   8.539  0.00  0.00    +0.227 C 
ATOM     14  O   ARG A   2      81.072  90.246   9.008  0.00  0.00    -0.286 OA
ENDBRANCH   1  13
BRANCH   1  15
ATOM     15  CB  ARG A   2      80.732  87.847  10.605  0.00  0.00    +0.031 C 
BRANCH  15  16
ATOM     16  CG  ARG A   2      79.484  87.048  10.289  0.00  0.00    +0.045 C 
BRANCH  16  17
ATOM     17  CD  ARG A   2      78.542  86.948  11.502  0.00  0.00    +0.174 C 
BRANCH  17  18
ATOM     18  NE  ARG A   2      79.143  86.293  12.661  0.00  0.00    -0.265 N 
ATOM     19  CZ  ARG A   2      79.629  86.936  13.719  0.00  0.00    +0.342 C 
ATOM     20  NH2 ARG A   2      80.154  86.256  14.729  0.00  0.00    -0.292 N 
ATOM     21 HH21 ARG A   2      80.533  86.762  15.555  0.00  0.00    +0.255 HD
ATOM     22 HH22 ARG A   2      80.187  85.217  14.695  0.00  0.00    +0.255 HD
ATOM     23  NH1 ARG A   2      79.592  88.261  13.773  0.00  0.00    -0.292 N 
ATOM     24 HH11 ARG A   2      79.974  88.758  14.603  0.00  0.00    +0.255 HD
ATOM     25 HH12 ARG A   2      79.181  88.802  12.986  0.00  0.00    +0.255 HD
ATOM     26  HE  ARG A   2      79.194  85.254  12.659  0.00  0.00    +0.259 HD
ENDBRANCH  17  18
ENDBRANCH  16  17
ENDBRANCH  15  16
ENDBRANCH   1  15
TORSDOF 10
REMARK  Name = ../refined-set-2016/4ufl/4ufl_pocket.pdb
REMARK  130 active torsions:
REMARK  status: ('A' for Active; 'I' for Inactive)
REMARK    1  A    between atoms: _1  and  _3
REMARK    2  A    between atoms: _3  and  _4
REMARK    3  A    between atoms: _3  and  _6
REMARK    4  A    between atoms: _9  and  _11
REMARK    5  A    between atoms: _11  and  _12
REMARK    6  A    between atoms: _14  and  _16
REMARK    7  A    between atoms: _16  and  _17
REMARK    8  A    between atoms: _19  and  _21
REMARK    9  A    between atoms: _21  and  _22
REMARK   10  A    between atoms: _24  and  _26
REMARK   11  A    between atoms: _26  and  _27
REMARK   12  A    between atoms: _26  and  _29
REMARK   13  A    between atoms: _29  and  _30
REMARK   14  A    between atoms: _33  and  _35
REMARK   15  A    between atoms: _35  and  _36
REMARK   16  A    between atoms: _35  and  _38
REMARK   17  A    between atoms: _38  and  _39
REMARK   18  A    between atoms: _39  and  _40
REMARK   19  A    between atoms: _40  and  _41
REMARK   20  A    between atoms: _41  and  _42
REMARK   21  A    between atoms: _46  and  _48
REMARK   22  A    between atoms: _48  and  _49
REMARK   23  A    between atoms: _48  and  _51
REMARK   24  A    between atoms: _51  and  _52
REMARK   25  A    between atoms: _52  and  _53
REMARK   26  A    between atoms: _56  and  _58
REMARK   27  A    between atoms: _58  and  _59
REMARK   28  A    between atoms: _58  and  _61
REMARK   29  A    between atoms: _61  and  _62
REMARK   30  A    between atoms: _65  and  _67
REMARK   31  A    between atoms: _67  and  _68
REMARK   32  A    between atoms: _67  and  _70
REMARK   33  A    between atoms: _70  and  _71
REMARK   34  A    between atoms: _74  and  _76
REMARK   35  A    between atoms: _76  and  _77
REMARK   36  A    between atoms: _76  and  _79
REMARK   37  A    between atoms: _79  and  _80
REMARK   38  A    between atoms: _83  and  _85
REMARK   39  A    between atoms: _85  and  _86
REMARK   40  A    between atoms: _85  and  _88
REMARK   41  A    between atoms: _88  and  _89
REMARK   42  A    between atoms: _92  and  _94
REMARK   43  A    between atoms: _94  and  _95
REMARK   44  A    between atoms: _94  and  _97
REMARK   45  A    between atoms: _97  and  _98
REMARK   46  A    between atoms: _108  and  _110
REMARK   47  A    between atoms: _110  and  _111
REMARK   48  A    between atoms: _110  and  _113
REMARK   49  A    between atoms: _113  and  _114
REMARK   50  A    between atoms: _119  and  _121
REMARK   51  A    between atoms: _121  and  _122
REMARK   52  A    between atoms: _121  and  _124
REMARK   53  A    between atoms: _124  and  _125
REMARK   54  A    between atoms: _125  and  _126
REMARK   55  A    between atoms: _129  and  _131
REMARK   56  A    between atoms: _131  and  _132
REMARK   57  A    between atoms: _131  and  _134
REMARK   58  A    between atoms: _134  and  _135
REMARK   59  A    between atoms: _135  and  _136
REMARK   60  A    between atoms: _136  and  _137
REMARK   61  A    between atoms: _146  and  _148
REMARK   62  A    between atoms: _148  and  _149
REMARK   63  A    between atoms: _148  and  _151
REMARK   64  A    between atoms: _151  and  _152
REMARK   65  A    between atoms: _155  and  _157
REMARK   66  A    between atoms: _157  and  _158
REMARK   67  A    between atoms: _157  and  _160
REMARK   68  A    between atoms: _160  and  _161
REMARK   69  A    between atoms: _166  and  _168
REMARK   70  A    between atoms: _168  and  _169
REMARK   71  A    between atoms: _168  and  _171
REMARK   72  A    between atoms: _171  and  _172
REMARK   73  A    between atoms: _177  and  _178
REMARK   74  A    between atoms: _180  and  _182
REMARK   75  A    between atoms: _182  and  _183
REMARK   76  A    between atoms: _182  and  _185
REMARK   77  A    between atoms: _185  and  _186
REMARK   78  A    between atoms: _186  and  _187
REMARK   79  A    between atoms: _190  and  _192
REMARK   80  A    between atoms: _192  and  _193
REMARK   81  A    between atoms: _192  and  _195
REMARK   82  A    between atoms: _195  and  _196
REMARK   83  A    between atoms: _199  and  _201
REMARK   84  A    between atoms: _201  and  _202
REMARK   85  A    between atoms: _201  and  _204
REMARK   86  A    between atoms: _204  and  _205
REMARK   87  A    between atoms: _211  and  _213
REMARK   88  A    between atoms: _213  and  _214
REMARK   89  A    between atoms: _213  and  _216
REMARK   90  A    between atoms: _216  and  _217
REMARK   91  A    between atoms: _219  and  _221
REMARK   92  A    between atoms: _221  and  _222
REMARK   93  A    between atoms: _221  and  _224
REMARK   94  A    between atoms: _224  and  _225
REMARK   95  A    between atoms: _228  and  _230
REMARK   96  A    between atoms: _230  and  _231
REMARK   97  A    between atoms: _230  and  _233
REMARK   98  A    between atoms: _233  and  _234
REMARK   99  A    between atoms: _244  and  _246
REMARK  100  A    between atoms: _246  and  _247
REMARK  101  A    between atoms: _246  and  _249
REMARK  102  A    between atoms: _249  and  _250
REMARK  103  A    between atoms: _256  and  _257
REMARK  104  A    between atoms: _262  and  _264
REMARK  105  A    between atoms: _264  and  _265
REMARK  106  A    between atoms: _264  and  _267
REMARK  107  A    between atoms: _267  and  _268
REMARK  108  A    between atoms: _273  and  _274
REMARK  109  A    between atoms: _276  and  _278
REMARK  110  A    between atoms: _278  and  _279
REMARK  111  A    between atoms: _278  and  _281
REMARK  112  A    between atoms: _281  and  _282
REMARK  113  A    between atoms: _284  and  _286
REMARK  114  A    between atoms: _286  and  _287
REMARK  115  A    between atoms: _286  and  _289
REMARK  116  A    between atoms: _289  and  _290
REMARK  117  A    between atoms: _293  and  _295
REMARK  118  A    between atoms: _295  and  _296
REMARK  119  A    between atoms: _295  and  _298
REMARK  120  A    between atoms: _298  and  _299
REMARK  121  A    between atoms: _299  and  _300
REMARK  122  A    between atoms: _300  and  _301
REMARK  123  A    between atoms: _310  and  _312
REMARK  124  A    between atoms: _312  and  _313
REMARK  125  A    between atoms: _312  and  _315
REMARK  126  A    between atoms: _315  and  _316
REMARK  127  A    between atoms: _326  and  _328
REMARK  128  A    between atoms: _328  and  _329
REMARK  129  A    between atoms: _328  and  _331
REMARK  130  A    between atoms: _331  and  _332
REMARK                            x       y       z     vdW  Elec       q    Type
REMARK                         _______ _______ _______ _____ _____    ______ ____
ROOT
ATOM      1  CG  TRP A   1      71.145  86.180  23.493  0.00  0.00    -0.002 A 
ATOM      2  CD2 TRP A   1      72.301  85.856  22.719  0.00  0.00    +0.013 A 
ATOM      3  CE3 TRP A   1      73.468  85.130  22.979  0.00  0.00    +0.001 A 
ATOM      4  CZ3 TRP A   1      74.420  85.044  21.999  0.00  0.00    +0.000 A 
ATOM      5  CH2 TRP A   1      74.235  85.663  20.753  0.00  0.00    +0.001 A 
ATOM      6  CZ2 TRP A   1      73.111  86.388  20.471  0.00  0.00    +0.017 A 
ATOM      7  CE2 TRP A   1      72.148  86.474  21.462  0.00  0.00    +0.056 A 
ATOM      8  NE1 TRP A   1      70.939  87.115  21.461  0.00  0.00    -0.352 N 
ATOM      9  HE1 TRP A   1      70.552  87.677  20.676  0.00  0.00    +0.166 HD
ATOM     10  CD1 TRP A   1      70.322  86.893  22.666  0.00  0.00    +0.068 A 
ENDROOT
BRANCH   1  11
ATOM     11  CB  TRP A   1      70.825  85.688  24.860  0.00  0.00    +0.053 C 
BRANCH  11  12
ATOM     12  CA  TRP A   1      70.034  84.382  24.820  0.00  0.00    +0.137 C 
BRANCH  12  13
ATOM     13  N   TRP A   1      69.608  83.962  26.131  0.00  0.00    -0.239 NA
ATOM     14  H   TRP A   1      70.275  84.072  26.922  0.00  0.00    +0.142 HD
ENDBRANCH  12  13
BRANCH  12  15
ATOM     15  C   TRP A   1      70.941  83.280  24.314  0.00  0.00    +0.224 C 
ATOM     16  O   TRP A   1      70.810  82.790  23.190  0.00  0.00    -0.287 OA
ENDBRANCH  12  15
ENDBRANCH  11  12
ENDBRANCH   1  11
TORSDOF 4
REMARK  Name = ../refined-set-2016/4ufl/4ufl_pocket.pdb
REMARK  130 active torsions:
REMARK  status: ('A' for Active; 'I' for Inactive)
REMARK    1  A    between atoms: _1  and  _3
REMARK    2  A    between atoms: _3  and  _4
REMARK    3  A    between atoms: _3  and  _6
REMARK    4  A    between atoms: _9  and  _11
REMARK    5  A    between atoms: _11  and  _12
REMARK    6  A    between atoms: _14  and  _16
REMARK    7  A    between atoms: _16  and  _17
REMARK    8  A    between atoms: _19  and  _21
REMARK    9  A    between atoms: _21  and  _22
REMARK   10  A    between atoms: _24  and  _26
REMARK   11  A    between atoms: _26  and  _27
REMARK   12  A    between atoms: _26  and  _29
REMARK   13  A    between atoms: _29  and  _30
REMARK   14  A    between atoms: _33  and  _35
REMARK   15  A    between atoms: _35  and  _36
REMARK   16  A    between atoms: _35  and  _38
REMARK   17  A    between atoms: _38  and  _39
REMARK   18  A    between atoms: _39  and  _40
REMARK   19  A    between atoms: _40  and  _41
REMARK   20  A    between atoms: _41  and  _42
REMARK   21  A    between atoms: _46  and  _48
REMARK   22  A    between atoms: _48  and  _49
REMARK   23  A    between atoms: _48  and  _51
REMARK   24  A    between atoms: _51  and  _52
REMARK   25  A    between atoms: _52  and  _53
REMARK   26  A    between atoms: _56  and  _58
REMARK   27  A    between atoms: _58  and  _59
REMARK   28  A    between atoms: _58  and  _61
REMARK   29  A    between atoms: _61  and  _62
REMARK   30  A    between atoms: _65  and  _67
REMARK   31  A    between atoms: _67  and  _68
REMARK   32  A    between atoms: _67  and  _70
REMARK   33  A    between atoms: _70  and  _71
REMARK   34  A    between atoms: _74  and  _76
REMARK   35  A    between atoms: _76  and  _77
REMARK   36  A    between atoms: _76  and  _79
REMARK   37  A    between atoms: _79  and  _80
REMARK   38  A    between atoms: _83  and  _85
REMARK   39  A    between atoms: _85  and  _86
REMARK   40  A    between atoms: _85  and  _88
REMARK   41  A    between atoms: _88  and  _89
REMARK   42  A    between atoms: _92  and  _94
REMARK   43  A    between atoms: _94  and  _95
REMARK   44  A    between atoms: _94  and  _97
REMARK   45  A    between atoms: _97  and  _98
REMARK   46  A    between atoms: _108  and  _110
REMARK   47  A    between atoms: _110  and  _111
REMARK   48  A    between atoms: _110  and  _113
REMARK   49  A    between atoms: _113  and  _114
REMARK   50  A    between atoms: _119  and  _121
REMARK   51  A    between atoms: _121  and  _122
REMARK   52  A    between atoms: _121  and  _124
REMARK   53  A    between atoms: _124  and  _125
REMARK   54  A    between atoms: _125  and  _126
REMARK   55  A    between atoms: _129  and  _131
REMARK   56  A    between atoms: _131  and  _132
REMARK   57  A    between atoms: _131  and  _134
REMARK   58  A    between atoms: _134  and  _135
REMARK   59  A    between atoms: _135  and  _136
REMARK   60  A    between atoms: _136  and  _137
REMARK   61  A    between atoms: _146  and  _148
REMARK   62  A    between atoms: _148  and  _149
REMARK   63  A    between atoms: _148  and  _151
REMARK   64  A    between atoms: _151  and  _152
REMARK   65  A    between atoms: _155  and  _157
REMARK   66  A    between atoms: _157  and  _158
REMARK   67  A    between atoms: _157  and  _160
REMARK   68  A    between atoms: _160  and  _161
REMARK   69  A    between atoms: _166  and  _168
REMARK   70  A    between atoms: _168  and  _169
REMARK   71  A    between atoms: _168  and  _171
REMARK   72  A    between atoms: _171  and  _172
REMARK   73  A    between atoms: _177  and  _178
REMARK   74  A    between atoms: _180  and  _182
REMARK   75  A    between atoms: _182  and  _183
REMARK   76  A    between atoms: _182  and  _185
REMARK   77  A    between atoms: _185  and  _186
REMARK   78  A    between atoms: _186  and  _187
REMARK   79  A    between atoms: _190  and  _192
REMARK   80  A    between atoms: _192  and  _193
REMARK   81  A    between atoms: _192  and  _195
REMARK   82  A    between atoms: _195  and  _196
REMARK   83  A    between atoms: _199  and  _201
REMARK   84  A    between atoms: _201  and  _202
REMARK   85  A    between atoms: _201  and  _204
REMARK   86  A    between atoms: _204  and  _205
REMARK   87  A    between atoms: _211  and  _213
REMARK   88  A    between atoms: _213  and  _214
REMARK   89  A    between atoms: _213  and  _216
REMARK   90  A    between atoms: _216  and  _217
REMARK   91  A    between atoms: _219  and  _221
REMARK   92  A    between atoms: _221  and  _222
REMARK   93  A    between atoms: _221  and  _224
REMARK   94  A    between atoms: _224  and  _225
REMARK   95  A    between atoms: _228  and  _230
REMARK   96  A    between atoms: _230  and  _231
REMARK   97  A    between atoms: _230  and  _233
REMARK   98  A    between atoms: _233  and  _234
REMARK   99  A    between atoms: _244  and  _246
REMARK  100  A    between atoms: _246  and  _247
REMARK  101  A    between atoms: _246  and  _249
REMARK  102  A    between atoms: _249  and  _250
REMARK  103  A    between atoms: _256  and  _257
REMARK  104  A    between atoms: _262  and  _264
REMARK  105  A    between atoms: _264  and  _265
REMARK  106  A    between atoms: _264  and  _267
REMARK  107  A    between atoms: _267  and  _268
REMARK  108  A    between atoms: _273  and  _274
REMARK  109  A    between atoms: _276  and  _278
REMARK  110  A    between atoms: _278  and  _279
REMARK  111  A    between atoms: _278  and  _281
REMARK  112  A    between atoms: _281  and  _282
REMARK  113  A    between atoms: _284  and  _286
REMARK  114  A    between atoms: _286  and  _287
REMARK  115  A    between atoms: _286  and  _289
REMARK  116  A    between atoms: _289  and  _290
REMARK  117  A    between atoms: _293  and  _295
REMARK  118  A    between atoms: _295  and  _296
REMARK  119  A    between atoms: _295  and  _298
REMARK  120  A    between atoms: _298  and  _299
REMARK  121  A    between atoms: _299  and  _300
REMARK  122  A    between atoms: _300  and  _301
REMARK  123  A    between atoms: _310  and  _312
REMARK  124  A    between atoms: _312  and  _313
REMARK  125  A    between atoms: _312  and  _315
REMARK  126  A    between atoms: _315  and  _316
REMARK  127  A    between atoms: _326  and  _328
REMARK  128  A    between atoms: _328  and  _329
REMARK  129  A    between atoms: _328  and  _331
REMARK  130  A    between atoms: _331  and  _332
REMARK                            x       y       z     vdW  Elec       q    Type
REMARK                         _______ _______ _______ _____ _____    ______ ____
ROOT
ATOM      1  CA  ILE A   1      78.697  81.279  25.231  0.00  0.00    +0.133 C 
ENDROOT
BRANCH   1   2
ATOM      2  N   ILE A   1      79.588  82.007  26.105  0.00  0.00    -0.239 NA
ATOM      3  H   ILE A   1      80.113  82.814  25.713  0.00  0.00    +0.142 HD
ENDBRANCH   1   2
BRANCH   1   4
ATOM      4  C   ILE A   1      78.900  79.761  25.322  0.00  0.00    +0.224 C 
ATOM      5  O   ILE A   1      77.949  78.992  25.195  0.00  0.00    -0.287 OA
ENDBRANCH   1   4
BRANCH   1   6
ATOM      6  CB  ILE A   1      78.911  81.748  23.793  0.00  0.00    +0.023 C 
ATOM      7  CG2 ILE A   1      78.560  80.688  22.854  0.00  0.00    +0.002 C 
BRANCH   6   8
ATOM      8  CG1 ILE A   1      77.904  82.847  23.462  0.00  0.00    +0.002 C 
ATOM      9  CD1 ILE A   1      78.240  83.691  22.197  0.00  0.00    +0.000 C 
ENDBRANCH   6   8
ENDBRANCH   1   6
TORSDOF 4
REMARK  Name = ../refined-set-2016/4ufl/4ufl_pocket.pdb
REMARK  130 active torsions:
REMARK  status: ('A' for Active; 'I' for Inactive)
REMARK    1  A    between atoms: _1  and  _3
REMARK    2  A    between atoms: _3  and  _4
REMARK    3  A    between atoms: _3  and  _6
REMARK    4  A    between atoms: _9  and  _11
REMARK    5  A    between atoms: _11  and  _12
REMARK    6  A    between atoms: _14  and  _16
REMARK    7  A    between atoms: _16  and  _17
REMARK    8  A    between atoms: _19  and  _21
REMARK    9  A    between atoms: _21  and  _22
REMARK   10  A    between atoms: _24  and  _26
REMARK   11  A    between atoms: _26  and  _27
REMARK   12  A    between atoms: _26  and  _29
REMARK   13  A    between atoms: _29  and  _30
REMARK   14  A    between atoms: _33  and  _35
REMARK   15  A    between atoms: _35  and  _36
REMARK   16  A    between atoms: _35  and  _38
REMARK   17  A    between atoms: _38  and  _39
REMARK   18  A    between atoms: _39  and  _40
REMARK   19  A    between atoms: _40  and  _41
REMARK   20  A    between atoms: _41  and  _42
REMARK   21  A    between atoms: _46  and  _48
REMARK   22  A    between atoms: _48  and  _49
REMARK   23  A    between atoms: _48  and  _51
REMARK   24  A    between atoms: _51  and  _52
REMARK   25  A    between atoms: _52  and  _53
REMARK   26  A    between atoms: _56  and  _58
REMARK   27  A    between atoms: _58  and  _59
REMARK   28  A    between atoms: _58  and  _61
REMARK   29  A    between atoms: _61  and  _62
REMARK   30  A    between atoms: _65  and  _67
REMARK   31  A    between atoms: _67  and  _68
REMARK   32  A    between atoms: _67  and  _70
REMARK   33  A    between atoms: _70  and  _71
REMARK   34  A    between atoms: _74  and  _76
REMARK   35  A    between atoms: _76  and  _77
REMARK   36  A    between atoms: _76  and  _79
REMARK   37  A    between atoms: _79  and  _80
REMARK   38  A    between atoms: _83  and  _85
REMARK   39  A    between atoms: _85  and  _86
REMARK   40  A    between atoms: _85  and  _88
REMARK   41  A    between atoms: _88  and  _89
REMARK   42  A    between atoms: _92  and  _94
REMARK   43  A    between atoms: _94  and  _95
REMARK   44  A    between atoms: _94  and  _97
REMARK   45  A    between atoms: _97  and  _98
REMARK   46  A    between atoms: _108  and  _110
REMARK   47  A    between atoms: _110  and  _111
REMARK   48  A    between atoms: _110  and  _113
REMARK   49  A    between atoms: _113  and  _114
REMARK   50  A    between atoms: _119  and  _121
REMARK   51  A    between atoms: _121  and  _122
REMARK   52  A    between atoms: _121  and  _124
REMARK   53  A    between atoms: _124  and  _125
REMARK   54  A    between atoms: _125  and  _126
REMARK   55  A    between atoms: _129  and  _131
REMARK   56  A    between atoms: _131  and  _132
REMARK   57  A    between atoms: _131  and  _134
REMARK   58  A    between atoms: _134  and  _135
REMARK   59  A    between atoms: _135  and  _136
REMARK   60  A    between atoms: _136  and  _137
REMARK   61  A    between atoms: _146  and  _148
REMARK   62  A    between atoms: _148  and  _149
REMARK   63  A    between atoms: _148  and  _151
REMARK   64  A    between atoms: _151  and  _152
REMARK   65  A    between atoms: _155  and  _157
REMARK   66  A    between atoms: _157  and  _158
REMARK   67  A    between atoms: _157  and  _160
REMARK   68  A    between atoms: _160  and  _161
REMARK   69  A    between atoms: _166  and  _168
REMARK   70  A    between atoms: _168  and  _169
REMARK   71  A    between atoms: _168  and  _171
REMARK   72  A    between atoms: _171  and  _172
REMARK   73  A    between atoms: _177  and  _178
REMARK   74  A    between atoms: _180  and  _182
REMARK   75  A    between atoms: _182  and  _183
REMARK   76  A    between atoms: _182  and  _185
REMARK   77  A    between atoms: _185  and  _186
REMARK   78  A    between atoms: _186  and  _187
REMARK   79  A    between atoms: _190  and  _192
REMARK   80  A    between atoms: _192  and  _193
REMARK   81  A    between atoms: _192  and  _195
REMARK   82  A    between atoms: _195  and  _196
REMARK   83  A    between atoms: _199  and  _201
REMARK   84  A    between atoms: _201  and  _202
REMARK   85  A    between atoms: _201  and  _204
REMARK   86  A    between atoms: _204  and  _205
REMARK   87  A    between atoms: _211  and  _213
REMARK   88  A    between atoms: _213  and  _214
REMARK   89  A    between atoms: _213  and  _216
REMARK   90  A    between atoms: _216  and  _217
REMARK   91  A    between atoms: _219  and  _221
REMARK   92  A    between atoms: _221  and  _222
REMARK   93  A    between atoms: _221  and  _224
REMARK   94  A    between atoms: _224  and  _225
REMARK   95  A    between atoms: _228  and  _230
REMARK   96  A    between atoms: _230  and  _231
REMARK   97  A    between atoms: _230  and  _233
REMARK   98  A    between atoms: _233  and  _234
REMARK   99  A    between atoms: _244  and  _246
REMARK  100  A    between atoms: _246  and  _247
REMARK  101  A    between atoms: _246  and  _249
REMARK  102  A    between atoms: _249  and  _250
REMARK  103  A    between atoms: _256  and  _257
REMARK  104  A    between atoms: _262  and  _264
REMARK  105  A    between atoms: _264  and  _265
REMARK  106  A    between atoms: _264  and  _267
REMARK  107  A    between atoms: _267  and  _268
REMARK  108  A    between atoms: _273  and  _274
REMARK  109  A    between atoms: _276  and  _278
REMARK  110  A    between atoms: _278  and  _279
REMARK  111  A    between atoms: _278  and  _281
REMARK  112  A    between atoms: _281  and  _282
REMARK  113  A    between atoms: _284  and  _286
REMARK  114  A    between atoms: _286  and  _287
REMARK  115  A    between atoms: _286  and  _289
REMARK  116  A    between atoms: _289  and  _290
REMARK  117  A    between atoms: _293  and  _295
REMARK  118  A    between atoms: _295  and  _296
REMARK  119  A    between atoms: _295  and  _298
REMARK  120  A    between atoms: _298  and  _299
REMARK  121  A    between atoms: _299  and  _300
REMARK  122  A    between atoms: _300  and  _301
REMARK  123  A    between atoms: _310  and  _312
REMARK  124  A    between atoms: _312  and  _313
REMARK  125  A    between atoms: _312  and  _315
REMARK  126  A    between atoms: _315  and  _316
REMARK  127  A    between atoms: _326  and  _328
REMARK  128  A    between atoms: _328  and  _329
REMARK  129  A    between atoms: _328  and  _331
REMARK  130  A    between atoms: _331  and  _332
REMARK                            x       y       z     vdW  Elec       q    Type
REMARK                         _______ _______ _______ _____ _____    ______ ____
ROOT
ATOM      1  O   HOH     1      74.131  94.620  19.335  0.00  0.00    +0.000 OA
ENDROOT
TORSDOF 0
REMARK  Name = ../refined-set-2016/4ufl/4ufl_pocket.pdb
REMARK  130 active torsions:
REMARK  status: ('A' for Active; 'I' for Inactive)
REMARK    1  A    between atoms: _1  and  _3
REMARK    2  A    between atoms: _3  and  _4
REMARK    3  A    between atoms: _3  and  _6
REMARK    4  A    between atoms: _9  and  _11
REMARK    5  A    between atoms: _11  and  _12
REMARK    6  A    between atoms: _14  and  _16
REMARK    7  A    between atoms: _16  and  _17
REMARK    8  A    between atoms: _19  and  _21
REMARK    9  A    between atoms: _21  and  _22
REMARK   10  A    between atoms: _24  and  _26
REMARK   11  A    between atoms: _26  and  _27
REMARK   12  A    between atoms: _26  and  _29
REMARK   13  A    between atoms: _29  and  _30
REMARK   14  A    between atoms: _33  and  _35
REMARK   15  A    between atoms: _35  and  _36
REMARK   16  A    between atoms: _35  and  _38
REMARK   17  A    between atoms: _38  and  _39
REMARK   18  A    between atoms: _39  and  _40
REMARK   19  A    between atoms: _40  and  _41
REMARK   20  A    between atoms: _41  and  _42
REMARK   21  A    between atoms: _46  and  _48
REMARK   22  A    between atoms: _48  and  _49
REMARK   23  A    between atoms: _48  and  _51
REMARK   24  A    between atoms: _51  and  _52
REMARK   25  A    between atoms: _52  and  _53
REMARK   26  A    between atoms: _56  and  _58
REMARK   27  A    between atoms: _58  and  _59
REMARK   28  A    between atoms: _58  and  _61
REMARK   29  A    between atoms: _61  and  _62
REMARK   30  A    between atoms: _65  and  _67
REMARK   31  A    between atoms: _67  and  _68
REMARK   32  A    between atoms: _67  and  _70
REMARK   33  A    between atoms: _70  and  _71
REMARK   34  A    between atoms: _74  and  _76
REMARK   35  A    between atoms: _76  and  _77
REMARK   36  A    between atoms: _76  and  _79
REMARK   37  A    between atoms: _79  and  _80
REMARK   38  A    between atoms: _83  and  _85
REMARK   39  A    between atoms: _85  and  _86
REMARK   40  A    between atoms: _85  and  _88
REMARK   41  A    between atoms: _88  and  _89
REMARK   42  A    between atoms: _92  and  _94
REMARK   43  A    between atoms: _94  and  _95
REMARK   44  A    between atoms: _94  and  _97
REMARK   45  A    between atoms: _97  and  _98
REMARK   46  A    between atoms: _108  and  _110
REMARK   47  A    between atoms: _110  and  _111
REMARK   48  A    between atoms: _110  and  _113
REMARK   49  A    between atoms: _113  and  _114
REMARK   50  A    between atoms: _119  and  _121
REMARK   51  A    between atoms: _121  and  _122
REMARK   52  A    between atoms: _121  and  _124
REMARK   53  A    between atoms: _124  and  _125
REMARK   54  A    between atoms: _125  and  _126
REMARK   55  A    between atoms: _129  and  _131
REMARK   56  A    between atoms: _131  and  _132
REMARK   57  A    between atoms: _131  and  _134
REMARK   58  A    between atoms: _134  and  _135
REMARK   59  A    between atoms: _135  and  _136
REMARK   60  A    between atoms: _136  and  _137
REMARK   61  A    between atoms: _146  and  _148
REMARK   62  A    between atoms: _148  and  _149
REMARK   63  A    between atoms: _148  and  _151
REMARK   64  A    between atoms: _151  and  _152
REMARK   65  A    between atoms: _155  and  _157
REMARK   66  A    between atoms: _157  and  _158
REMARK   67  A    between atoms: _157  and  _160
REMARK   68  A    between atoms: _160  and  _161
REMARK   69  A    between atoms: _166  and  _168
REMARK   70  A    between atoms: _168  and  _169
REMARK   71  A    between atoms: _168  and  _171
REMARK   72  A    between atoms: _171  and  _172
REMARK   73  A    between atoms: _177  and  _178
REMARK   74  A    between atoms: _180  and  _182
REMARK   75  A    between atoms: _182  and  _183
REMARK   76  A    between atoms: _182  and  _185
REMARK   77  A    between atoms: _185  and  _186
REMARK   78  A    between atoms: _186  and  _187
REMARK   79  A    between atoms: _190  and  _192
REMARK   80  A    between atoms: _192  and  _193
REMARK   81  A    between atoms: _192  and  _195
REMARK   82  A    between atoms: _195  and  _196
REMARK   83  A    between atoms: _199  and  _201
REMARK   84  A    between atoms: _201  and  _202
REMARK   85  A    between atoms: _201  and  _204
REMARK   86  A    between atoms: _204  and  _205
REMARK   87  A    between atoms: _211  and  _213
REMARK   88  A    between atoms: _213  and  _214
REMARK   89  A    between atoms: _213  and  _216
REMARK   90  A    between atoms: _216  and  _217
REMARK   91  A    between atoms: _219  and  _221
REMARK   92  A    between atoms: _221  and  _222
REMARK   93  A    between atoms: _221  and  _224
REMARK   94  A    between atoms: _224  and  _225
REMARK   95  A    between atoms: _228  and  _230
REMARK   96  A    between atoms: _230  and  _231
REMARK   97  A    between atoms: _230  and  _233
REMARK   98  A    between atoms: _233  and  _234
REMARK   99  A    between atoms: _244  and  _246
REMARK  100  A    between atoms: _246  and  _247
REMARK  101  A    between atoms: _246  and  _249
REMARK  102  A    between atoms: _249  and  _250
REMARK  103  A    between atoms: _256  and  _257
REMARK  104  A    between atoms: _262  and  _264
REMARK  105  A    between atoms: _264  and  _265
REMARK  106  A    between atoms: _264  and  _267
REMARK  107  A    between atoms: _267  and  _268
REMARK  108  A    between atoms: _273  and  _274
REMARK  109  A    between atoms: _276  and  _278
REMARK  110  A    between atoms: _278  and  _279
REMARK  111  A    between atoms: _278  and  _281
REMARK  112  A    between atoms: _281  and  _282
REMARK  113  A    between atoms: _284  and  _286
REMARK  114  A    between atoms: _286  and  _287
REMARK  115  A    between atoms: _286  and  _289
REMARK  116  A    between atoms: _289  and  _290
REMARK  117  A    between atoms: _293  and  _295
REMARK  118  A    between atoms: _295  and  _296
REMARK  119  A    between atoms: _295  and  _298
REMARK  120  A    between atoms: _298  and  _299
REMARK  121  A    between atoms: _299  and  _300
REMARK  122  A    between atoms: _300  and  _301
REMARK  123  A    between atoms: _310  and  _312
REMARK  124  A    between atoms: _312  and  _313
REMARK  125  A    between atoms: _312  and  _315
REMARK  126  A    between atoms: _315  and  _316
REMARK  127  A    between atoms: _326  and  _328
REMARK  128  A    between atoms: _328  and  _329
REMARK  129  A    between atoms: _328  and  _331
REMARK  130  A    between atoms: _331  and  _332
REMARK                            x       y       z     vdW  Elec       q    Type
REMARK                         _______ _______ _______ _____ _____    ______ ____
ROOT
ATOM      1  O   HOH     1      83.160  90.710  11.173  0.00  0.00    +0.000 OA
ENDROOT
TORSDOF 0
REMARK  Name = ../refined-set-2016/4ufl/4ufl_pocket.pdb
REMARK  130 active torsions:
REMARK  status: ('A' for Active; 'I' for Inactive)
REMARK    1  A    between atoms: _1  and  _3
REMARK    2  A    between atoms: _3  and  _4
REMARK    3  A    between atoms: _3  and  _6
REMARK    4  A    between atoms: _9  and  _11
REMARK    5  A    between atoms: _11  and  _12
REMARK    6  A    between atoms: _14  and  _16
REMARK    7  A    between atoms: _16  and  _17
REMARK    8  A    between atoms: _19  and  _21
REMARK    9  A    between atoms: _21  and  _22
REMARK   10  A    between atoms: _24  and  _26
REMARK   11  A    between atoms: _26  and  _27
REMARK   12  A    between atoms: _26  and  _29
REMARK   13  A    between atoms: _29  and  _30
REMARK   14  A    between atoms: _33  and  _35
REMARK   15  A    between atoms: _35  and  _36
REMARK   16  A    between atoms: _35  and  _38
REMARK   17  A    between atoms: _38  and  _39
REMARK   18  A    between atoms: _39  and  _40
REMARK   19  A    between atoms: _40  and  _41
REMARK   20  A    between atoms: _41  and  _42
REMARK   21  A    between atoms: _46  and  _48
REMARK   22  A    between atoms: _48  and  _49
REMARK   23  A    between atoms: _48  and  _51
REMARK   24  A    between atoms: _51  and  _52
REMARK   25  A    between atoms: _52  and  _53
REMARK   26  A    between atoms: _56  and  _58
REMARK   27  A    between atoms: _58  and  _59
REMARK   28  A    between atoms: _58  and  _61
REMARK   29  A    between atoms: _61  and  _62
REMARK   30  A    between atoms: _65  and  _67
REMARK   31  A    between atoms: _67  and  _68
REMARK   32  A    between atoms: _67  and  _70
REMARK   33  A    between atoms: _70  and  _71
REMARK   34  A    between atoms: _74  and  _76
REMARK   35  A    between atoms: _76  and  _77
REMARK   36  A    between atoms: _76  and  _79
REMARK   37  A    between atoms: _79  and  _80
REMARK   38  A    between atoms: _83  and  _85
REMARK   39  A    between atoms: _85  and  _86
REMARK   40  A    between atoms: _85  and  _88
REMARK   41  A    between atoms: _88  and  _89
REMARK   42  A    between atoms: _92  and  _94
REMARK   43  A    between atoms: _94  and  _95
REMARK   44  A    between atoms: _94  and  _97
REMARK   45  A    between atoms: _97  and  _98
REMARK   46  A    between atoms: _108  and  _110
REMARK   47  A    between atoms: _110  and  _111
REMARK   48  A    between atoms: _110  and  _113
REMARK   49  A    between atoms: _113  and  _114
REMARK   50  A    between atoms: _119  and  _121
REMARK   51  A    between atoms: _121  and  _122
REMARK   52  A    between atoms: _121  and  _124
REMARK   53  A    between atoms: _124  and  _125
REMARK   54  A    between atoms: _125  and  _126
REMARK   55  A    between atoms: _129  and  _131
REMARK   56  A    between atoms: _131  and  _132
REMARK   57  A    between atoms: _131  and  _134
REMARK   58  A    between atoms: _134  and  _135
REMARK   59  A    between atoms: _135  and  _136
REMARK   60  A    between atoms: _136  and  _137
REMARK   61  A    between atoms: _146  and  _148
REMARK   62  A    between atoms: _148  and  _149
REMARK   63  A    between atoms: _148  and  _151
REMARK   64  A    between atoms: _151  and  _152
REMARK   65  A    between atoms: _155  and  _157
REMARK   66  A    between atoms: _157  and  _158
REMARK   67  A    between atoms: _157  and  _160
REMARK   68  A    between atoms: _160  and  _161
REMARK   69  A    between atoms: _166  and  _168
REMARK   70  A    between atoms: _168  and  _169
REMARK   71  A    between atoms: _168  and  _171
REMARK   72  A    between atoms: _171  and  _172
REMARK   73  A    between atoms: _177  and  _178
REMARK   74  A    between atoms: _180  and  _182
REMARK   75  A    between atoms: _182  and  _183
REMARK   76  A    between atoms: _182  and  _185
REMARK   77  A    between atoms: _185  and  _186
REMARK   78  A    between atoms: _186  and  _187
REMARK   79  A    between atoms: _190  and  _192
REMARK   80  A    between atoms: _192  and  _193
REMARK   81  A    between atoms: _192  and  _195
REMARK   82  A    between atoms: _195  and  _196
REMARK   83  A    between atoms: _199  and  _201
REMARK   84  A    between atoms: _201  and  _202
REMARK   85  A    between atoms: _201  and  _204
REMARK   86  A    between atoms: _204  and  _205
REMARK   87  A    between atoms: _211  and  _213
REMARK   88  A    between atoms: _213  and  _214
REMARK   89  A    between atoms: _213  and  _216
REMARK   90  A    between atoms: _216  and  _217
REMARK   91  A    between atoms: _219  and  _221
REMARK   92  A    between atoms: _221  and  _222
REMARK   93  A    between atoms: _221  and  _224
REMARK   94  A    between atoms: _224  and  _225
REMARK   95  A    between atoms: _228  and  _230
REMARK   96  A    between atoms: _230  and  _231
REMARK   97  A    between atoms: _230  and  _233
REMARK   98  A    between atoms: _233  and  _234
REMARK   99  A    between atoms: _244  and  _246
REMARK  100  A    between atoms: _246  and  _247
REMARK  101  A    between atoms: _246  and  _249
REMARK  102  A    between atoms: _249  and  _250
REMARK  103  A    between atoms: _256  and  _257
REMARK  104  A    between atoms: _262  and  _264
REMARK  105  A    between atoms: _264  and  _265
REMARK  106  A    between atoms: _264  and  _267
REMARK  107  A    between atoms: _267  and  _268
REMARK  108  A    between atoms: _273  and  _274
REMARK  109  A    between atoms: _276  and  _278
REMARK  110  A    between atoms: _278  and  _279
REMARK  111  A    between atoms: _278  and  _281
REMARK  112  A    between atoms: _281  and  _282
REMARK  113  A    between atoms: _284  and  _286
REMARK  114  A    between atoms: _286  and  _287
REMARK  115  A    between atoms: _286  and  _289
REMARK  116  A    between atoms: _289  and  _290
REMARK  117  A    between atoms: _293  and  _295
REMARK  118  A    between atoms: _295  and  _296
REMARK  119  A    between atoms: _295  and  _298
REMARK  120  A    between atoms: _298  and  _299
REMARK  121  A    between atoms: _299  and  _300
REMARK  122  A    between atoms: _300  and  _301
REMARK  123  A    between atoms: _310  and  _312
REMARK  124  A    between atoms: _312  and  _313
REMARK  125  A    between atoms: _312  and  _315
REMARK  126  A    between atoms: _315  and  _316
REMARK  127  A    between atoms: _326  and  _328
REMARK  128  A    between atoms: _328  and  _329
REMARK  129  A    between atoms: _328  and  _331
REMARK  130  A    between atoms: _331  and  _332
REMARK                            x       y       z     vdW  Elec       q    Type
REMARK                         _______ _______ _______ _____ _____    ______ ____
ROOT
ATOM      1  O   HOH     1      86.768  87.472  16.703  0.00  0.00    +0.000 OA
ENDROOT
TORSDOF 0
