REMARK  Name = ../refined-set-2016/3lcu/3lcu_pocket.pdb
REMARK  229 active torsions:
REMARK  status: ('A' for Active; 'I' for Inactive)
REMARK    1  A    between atoms: _1  and  _3
REMARK    2  A    between atoms: _3  and  _4
REMARK    3  A    between atoms: _3  and  _6
REMARK    4  A    between atoms: _9  and  _11
REMARK    5  A    between atoms: _11  and  _12
REMARK    6  A    between atoms: _15  and  _17
REMARK    7  A    between atoms: _17  and  _18
REMARK    8  A    between atoms: _17  and  _20
REMARK    9  A    between atoms: _20  and  _21
REMARK   10  A    between atoms: _24  and  _26
REMARK   11  A    between atoms: _26  and  _27
REMARK   12  A    between atoms: _26  and  _29
REMARK   13  A    between atoms: _29  and  _30
REMARK   14  A    between atoms: _30  and  _31
REMARK   15  A    between atoms: _31  and  _32
REMARK   16  A    between atoms: _41  and  _43
REMARK   17  A    between atoms: _43  and  _44
REMARK   18  A    between atoms: _43  and  _46
REMARK   19  A    between atoms: _46  and  _47
REMARK   20  A    between atoms: _50  and  _52
REMARK   21  A    between atoms: _52  and  _53
REMARK   22  A    between atoms: _55  and  _57
REMARK   23  A    between atoms: _57  and  _58
REMARK   24  A    between atoms: _57  and  _60
REMARK   25  A    between atoms: _60  and  _61
REMARK   26  A    between atoms: _64  and  _66
REMARK   27  A    between atoms: _66  and  _67
REMARK   28  A    between atoms: _66  and  _69
REMARK   29  A    between atoms: _69  and  _70
REMARK   30  A    between atoms: _70  and  _71
REMARK   31  A    between atoms: _74  and  _76
REMARK   32  A    between atoms: _76  and  _77
REMARK   33  A    between atoms: _76  and  _79
REMARK   34  A    between atoms: _79  and  _80
REMARK   35  A    between atoms: _83  and  _85
REMARK   36  A    between atoms: _85  and  _86
REMARK   37  A    between atoms: _85  and  _88
REMARK   38  A    between atoms: _88  and  _89
REMARK   39  A    between atoms: _94  and  _95
REMARK   40  A    between atoms: _97  and  _99
REMARK   41  A    between atoms: _99  and  _100
REMARK   42  A    between atoms: _102  and  _104
REMARK   43  A    between atoms: _104  and  _105
REMARK   44  A    between atoms: _108  and  _110
REMARK   45  A    between atoms: _110  and  _111
REMARK   46  A    between atoms: _110  and  _113
REMARK   47  A    between atoms: _113  and  _114
REMARK   48  A    between atoms: _120  and  _122
REMARK   49  A    between atoms: _122  and  _123
REMARK   50  A    between atoms: _122  and  _125
REMARK   51  A    between atoms: _125  and  _126
REMARK   52  A    between atoms: _129  and  _131
REMARK   53  A    between atoms: _131  and  _132
REMARK   54  A    between atoms: _131  and  _134
REMARK   55  A    between atoms: _134  and  _135
REMARK   56  A    between atoms: _135  and  _136
REMARK   57  A    between atoms: _138  and  _140
REMARK   58  A    between atoms: _140  and  _141
REMARK   59  A    between atoms: _140  and  _143
REMARK   60  A    between atoms: _143  and  _144
REMARK   61  A    between atoms: _149  and  _151
REMARK   62  A    between atoms: _151  and  _152
REMARK   63  A    between atoms: _151  and  _154
REMARK   64  A    between atoms: _154  and  _155
REMARK   65  A    between atoms: _158  and  _160
REMARK   66  A    between atoms: _160  and  _161
REMARK   67  A    between atoms: _160  and  _163
REMARK   68  A    between atoms: _163  and  _164
REMARK   69  A    between atoms: _166  and  _168
REMARK   70  A    between atoms: _168  and  _169
REMARK   71  A    between atoms: _168  and  _171
REMARK   72  A    between atoms: _171  and  _172
REMARK   73  A    between atoms: _175  and  _177
REMARK   74  A    between atoms: _177  and  _178
REMARK   75  A    between atoms: _177  and  _180
REMARK   76  A    between atoms: _180  and  _181
REMARK   77  A    between atoms: _181  and  _182
REMARK   78  A    between atoms: _182  and  _183
REMARK   79  A    between atoms: _192  and  _194
REMARK   80  A    between atoms: _194  and  _195
REMARK   81  A    between atoms: _194  and  _197
REMARK   82  A    between atoms: _197  and  _198
REMARK   83  A    between atoms: _198  and  _199
REMARK   84  A    between atoms: _202  and  _204
REMARK   85  A    between atoms: _204  and  _205
REMARK   86  A    between atoms: _204  and  _207
REMARK   87  A    between atoms: _207  and  _208
REMARK   88  A    between atoms: _208  and  _209
REMARK   89  A    between atoms: _209  and  _210
REMARK   90  A    between atoms: _219  and  _221
REMARK   91  A    between atoms: _221  and  _222
REMARK   92  A    between atoms: _221  and  _224
REMARK   93  A    between atoms: _224  and  _225
REMARK   94  A    between atoms: _228  and  _230
REMARK   95  A    between atoms: _230  and  _231
REMARK   96  A    between atoms: _230  and  _233
REMARK   97  A    between atoms: _233  and  _234
REMARK   98  A    between atoms: _240  and  _242
REMARK   99  A    between atoms: _242  and  _243
REMARK  100  A    between atoms: _242  and  _245
REMARK  101  A    between atoms: _245  and  _246
REMARK  102  A    between atoms: _251  and  _252
REMARK  103  A    between atoms: _254  and  _256
REMARK  104  A    between atoms: _256  and  _257
REMARK  105  A    between atoms: _256  and  _259
REMARK  106  A    between atoms: _259  and  _260
REMARK  107  A    between atoms: _263  and  _265
REMARK  108  A    between atoms: _265  and  _266
REMARK  109  A    between atoms: _265  and  _268
REMARK  110  A    between atoms: _268  and  _269
REMARK  111  A    between atoms: _272  and  _274
REMARK  112  A    between atoms: _274  and  _275
REMARK  113  A    between atoms: _278  and  _280
REMARK  114  A    between atoms: _280  and  _281
REMARK  115  A    between atoms: _280  and  _283
REMARK  116  A    between atoms: _285  and  _287
REMARK  117  A    between atoms: _287  and  _288
REMARK  118  A    between atoms: _290  and  _292
REMARK  119  A    between atoms: _292  and  _293
REMARK  120  A    between atoms: _292  and  _295
REMARK  121  A    between atoms: _295  and  _296
REMARK  122  A    between atoms: _299  and  _301
REMARK  123  A    between atoms: _301  and  _302
REMARK  124  A    between atoms: _301  and  _304
REMARK  125  A    between atoms: _304  and  _305
REMARK  126  A    between atoms: _311  and  _312
REMARK  127  A    between atoms: _317  and  _319
REMARK  128  A    between atoms: _319  and  _320
REMARK  129  A    between atoms: _319  and  _322
REMARK  130  A    between atoms: _322  and  _323
REMARK  131  A    between atoms: _325  and  _327
REMARK  132  A    between atoms: _327  and  _328
REMARK  133  A    between atoms: _327  and  _330
REMARK  134  A    between atoms: _330  and  _331
REMARK  135  A    between atoms: _334  and  _336
REMARK  136  A    between atoms: _336  and  _337
REMARK  137  A    between atoms: _336  and  _339
REMARK  138  A    between atoms: _339  and  _340
REMARK  139  A    between atoms: _343  and  _345
REMARK  140  A    between atoms: _345  and  _346
REMARK  141  A    between atoms: _345  and  _348
REMARK  142  A    between atoms: _348  and  _349
REMARK  143  A    between atoms: _352  and  _354
REMARK  144  A    between atoms: _354  and  _355
REMARK  145  A    between atoms: _354  and  _357
REMARK  146  A    between atoms: _357  and  _358
REMARK  147  A    between atoms: _361  and  _363
REMARK  148  A    between atoms: _363  and  _364
REMARK  149  A    between atoms: _363  and  _366
REMARK  150  A    between atoms: _369  and  _371
REMARK  151  A    between atoms: _371  and  _372
REMARK  152  A    between atoms: _375  and  _377
REMARK  153  A    between atoms: _377  and  _378
REMARK  154  A    between atoms: _377  and  _380
REMARK  155  A    between atoms: _380  and  _381
REMARK  156  A    between atoms: _384  and  _386
REMARK  157  A    between atoms: _386  and  _387
REMARK  158  A    between atoms: _386  and  _389
REMARK  159  A    between atoms: _389  and  _390
REMARK  160  A    between atoms: _393  and  _395
REMARK  161  A    between atoms: _395  and  _396
REMARK  162  A    between atoms: _395  and  _398
REMARK  163  A    between atoms: _398  and  _399
REMARK  164  A    between atoms: _402  and  _404
REMARK  165  A    between atoms: _404  and  _405
REMARK  166  A    between atoms: _404  and  _407
REMARK  167  A    between atoms: _407  and  _408
REMARK  168  A    between atoms: _408  and  _409
REMARK  169  A    between atoms: _412  and  _414
REMARK  170  A    between atoms: _414  and  _415
REMARK  171  A    between atoms: _414  and  _417
REMARK  172  A    between atoms: _417  and  _418
REMARK  173  A    between atoms: _421  and  _423
REMARK  174  A    between atoms: _423  and  _424
REMARK  175  A    between atoms: _423  and  _426
REMARK  176  A    between atoms: _426  and  _427
REMARK  177  A    between atoms: _430  and  _432
REMARK  178  A    between atoms: _432  and  _433
REMARK  179  A    between atoms: _432  and  _435
REMARK  180  A    between atoms: _435  and  _436
REMARK  181  A    between atoms: _439  and  _441
REMARK  182  A    between atoms: _441  and  _442
REMARK  183  A    between atoms: _441  and  _444
REMARK  184  A    between atoms: _444  and  _445
REMARK  185  A    between atoms: _448  and  _450
REMARK  186  A    between atoms: _450  and  _451
REMARK  187  A    between atoms: _450  and  _453
REMARK  188  A    between atoms: _453  and  _454
REMARK  189  A    between atoms: _454  and  _455
REMARK  190  A    between atoms: _455  and  _456
REMARK  191  A    between atoms: _456  and  _457
REMARK  192  A    between atoms: _461  and  _463
REMARK  193  A    between atoms: _463  and  _464
REMARK  194  A    between atoms: _463  and  _466
REMARK  195  A    between atoms: _466  and  _467
REMARK  196  A    between atoms: _470  and  _472
REMARK  197  A    between atoms: _472  and  _473
REMARK  198  A    between atoms: _472  and  _475
REMARK  199  A    between atoms: _475  and  _476
REMARK  200  A    between atoms: _479  and  _481
REMARK  201  A    between atoms: _481  and  _482
REMARK  202  A    between atoms: _481  and  _484
REMARK  203  A    between atoms: _486  and  _488
REMARK  204  A    between atoms: _488  and  _489
REMARK  205  A    between atoms: _488  and  _491
REMARK  206  A    between atoms: _491  and  _492
REMARK  207  A    between atoms: _495  and  _497
REMARK  208  A    between atoms: _497  and  _498
REMARK  209  A    between atoms: _497  and  _500
REMARK  210  A    between atoms: _500  and  _501
REMARK  211  A    between atoms: _501  and  _502
REMARK  212  A    between atoms: _507  and  _509
REMARK  213  A    between atoms: _509  and  _510
REMARK  214  A    between atoms: _509  and  _512
REMARK  215  A    between atoms: _512  and  _513
REMARK  216  A    between atoms: _513  and  _514
REMARK  217  A    between atoms: _519  and  _521
REMARK  218  A    between atoms: _521  and  _522
REMARK  219  A    between atoms: _521  and  _524
REMARK  220  A    between atoms: _524  and  _525
REMARK  221  A    between atoms: _527  and  _529
REMARK  222  A    between atoms: _529  and  _530
REMARK  223  A    between atoms: _529  and  _532
REMARK  224  A    between atoms: _532  and  _533
REMARK  225  A    between atoms: _536  and  _538
REMARK  226  A    between atoms: _538  and  _539
REMARK  227  A    between atoms: _538  and  _541
REMARK  228  A    between atoms: _541  and  _542
REMARK  229  A    between atoms: _542  and  _543
REMARK                            x       y       z     vdW  Elec       q    Type
REMARK                         _______ _______ _______ _____ _____    ______ ____
ROOT
ATOM      1  C   VAL A   1       8.178  13.820  17.754  0.00  0.00    +0.238 C 
ATOM      2  N   ALA A   2       9.228  13.052  17.997  0.00  0.00    -0.298 N 
ATOM      3  H   ALA A   2       9.088  12.035  18.163  0.00  0.00    +0.150 HD
ATOM      4  O   VAL A   1       8.270  15.029  17.554  0.00  0.00    -0.274 OA
ENDROOT
BRANCH   2   5
ATOM      5  CA  ALA A   2      10.571  13.601  18.036  0.00  0.00    +0.137 C 
ATOM      6  CB  ALA A   2      11.579  12.479  18.210  0.00  0.00    +0.030 C 
BRANCH   5   7
ATOM      7  C   ALA A   2      10.909  14.406  16.788  0.00  0.00    +0.227 C 
ATOM      8  O   ALA A   2      10.774  13.918  15.666  0.00  0.00    -0.286 OA
ENDBRANCH   5   7
ENDBRANCH   2   5
BRANCH   1   9
ATOM      9  CA  VAL A   1       6.819  13.134  17.754  0.00  0.00    +0.145 C 
BRANCH   9  10
ATOM     10  CB  VAL A   1       6.479  12.661  16.321  0.00  0.00    +0.025 C 
ATOM     11  CG2 VAL A   1       5.215  11.819  16.346  0.00  0.00    +0.002 C 
ATOM     12  CG1 VAL A   1       7.640  11.850  15.750  0.00  0.00    +0.002 C 
ENDBRANCH   9  10
BRANCH   9  13
ATOM     13  N   VAL A   1       5.882  14.134  18.236  0.00  0.00    -0.238 NA
ATOM     14  H   VAL A   1       5.126  14.480  17.611  0.00  0.00    +0.142 HD
ENDBRANCH   9  13
ENDBRANCH   1   9
TORSDOF 5
REMARK  Name = ../refined-set-2016/3lcu/3lcu_pocket.pdb
REMARK  229 active torsions:
REMARK  status: ('A' for Active; 'I' for Inactive)
REMARK    1  A    between atoms: _1  and  _3
REMARK    2  A    between atoms: _3  and  _4
REMARK    3  A    between atoms: _3  and  _6
REMARK    4  A    between atoms: _9  and  _11
REMARK    5  A    between atoms: _11  and  _12
REMARK    6  A    between atoms: _15  and  _17
REMARK    7  A    between atoms: _17  and  _18
REMARK    8  A    between atoms: _17  and  _20
REMARK    9  A    between atoms: _20  and  _21
REMARK   10  A    between atoms: _24  and  _26
REMARK   11  A    between atoms: _26  and  _27
REMARK   12  A    between atoms: _26  and  _29
REMARK   13  A    between atoms: _29  and  _30
REMARK   14  A    between atoms: _30  and  _31
REMARK   15  A    between atoms: _31  and  _32
REMARK   16  A    between atoms: _41  and  _43
REMARK   17  A    between atoms: _43  and  _44
REMARK   18  A    between atoms: _43  and  _46
REMARK   19  A    between atoms: _46  and  _47
REMARK   20  A    between atoms: _50  and  _52
REMARK   21  A    between atoms: _52  and  _53
REMARK   22  A    between atoms: _55  and  _57
REMARK   23  A    between atoms: _57  and  _58
REMARK   24  A    between atoms: _57  and  _60
REMARK   25  A    between atoms: _60  and  _61
REMARK   26  A    between atoms: _64  and  _66
REMARK   27  A    between atoms: _66  and  _67
REMARK   28  A    between atoms: _66  and  _69
REMARK   29  A    between atoms: _69  and  _70
REMARK   30  A    between atoms: _70  and  _71
REMARK   31  A    between atoms: _74  and  _76
REMARK   32  A    between atoms: _76  and  _77
REMARK   33  A    between atoms: _76  and  _79
REMARK   34  A    between atoms: _79  and  _80
REMARK   35  A    between atoms: _83  and  _85
REMARK   36  A    between atoms: _85  and  _86
REMARK   37  A    between atoms: _85  and  _88
REMARK   38  A    between atoms: _88  and  _89
REMARK   39  A    between atoms: _94  and  _95
REMARK   40  A    between atoms: _97  and  _99
REMARK   41  A    between atoms: _99  and  _100
REMARK   42  A    between atoms: _102  and  _104
REMARK   43  A    between atoms: _104  and  _105
REMARK   44  A    between atoms: _108  and  _110
REMARK   45  A    between atoms: _110  and  _111
REMARK   46  A    between atoms: _110  and  _113
REMARK   47  A    between atoms: _113  and  _114
REMARK   48  A    between atoms: _120  and  _122
REMARK   49  A    between atoms: _122  and  _123
REMARK   50  A    between atoms: _122  and  _125
REMARK   51  A    between atoms: _125  and  _126
REMARK   52  A    between atoms: _129  and  _131
REMARK   53  A    between atoms: _131  and  _132
REMARK   54  A    between atoms: _131  and  _134
REMARK   55  A    between atoms: _134  and  _135
REMARK   56  A    between atoms: _135  and  _136
REMARK   57  A    between atoms: _138  and  _140
REMARK   58  A    between atoms: _140  and  _141
REMARK   59  A    between atoms: _140  and  _143
REMARK   60  A    between atoms: _143  and  _144
REMARK   61  A    between atoms: _149  and  _151
REMARK   62  A    between atoms: _151  and  _152
REMARK   63  A    between atoms: _151  and  _154
REMARK   64  A    between atoms: _154  and  _155
REMARK   65  A    between atoms: _158  and  _160
REMARK   66  A    between atoms: _160  and  _161
REMARK   67  A    between atoms: _160  and  _163
REMARK   68  A    between atoms: _163  and  _164
REMARK   69  A    between atoms: _166  and  _168
REMARK   70  A    between atoms: _168  and  _169
REMARK   71  A    between atoms: _168  and  _171
REMARK   72  A    between atoms: _171  and  _172
REMARK   73  A    between atoms: _175  and  _177
REMARK   74  A    between atoms: _177  and  _178
REMARK   75  A    between atoms: _177  and  _180
REMARK   76  A    between atoms: _180  and  _181
REMARK   77  A    between atoms: _181  and  _182
REMARK   78  A    between atoms: _182  and  _183
REMARK   79  A    between atoms: _192  and  _194
REMARK   80  A    between atoms: _194  and  _195
REMARK   81  A    between atoms: _194  and  _197
REMARK   82  A    between atoms: _197  and  _198
REMARK   83  A    between atoms: _198  and  _199
REMARK   84  A    between atoms: _202  and  _204
REMARK   85  A    between atoms: _204  and  _205
REMARK   86  A    between atoms: _204  and  _207
REMARK   87  A    between atoms: _207  and  _208
REMARK   88  A    between atoms: _208  and  _209
REMARK   89  A    between atoms: _209  and  _210
REMARK   90  A    between atoms: _219  and  _221
REMARK   91  A    between atoms: _221  and  _222
REMARK   92  A    between atoms: _221  and  _224
REMARK   93  A    between atoms: _224  and  _225
REMARK   94  A    between atoms: _228  and  _230
REMARK   95  A    between atoms: _230  and  _231
REMARK   96  A    between atoms: _230  and  _233
REMARK   97  A    between atoms: _233  and  _234
REMARK   98  A    between atoms: _240  and  _242
REMARK   99  A    between atoms: _242  and  _243
REMARK  100  A    between atoms: _242  and  _245
REMARK  101  A    between atoms: _245  and  _246
REMARK  102  A    between atoms: _251  and  _252
REMARK  103  A    between atoms: _254  and  _256
REMARK  104  A    between atoms: _256  and  _257
REMARK  105  A    between atoms: _256  and  _259
REMARK  106  A    between atoms: _259  and  _260
REMARK  107  A    between atoms: _263  and  _265
REMARK  108  A    between atoms: _265  and  _266
REMARK  109  A    between atoms: _265  and  _268
REMARK  110  A    between atoms: _268  and  _269
REMARK  111  A    between atoms: _272  and  _274
REMARK  112  A    between atoms: _274  and  _275
REMARK  113  A    between atoms: _278  and  _280
REMARK  114  A    between atoms: _280  and  _281
REMARK  115  A    between atoms: _280  and  _283
REMARK  116  A    between atoms: _285  and  _287
REMARK  117  A    between atoms: _287  and  _288
REMARK  118  A    between atoms: _290  and  _292
REMARK  119  A    between atoms: _292  and  _293
REMARK  120  A    between atoms: _292  and  _295
REMARK  121  A    between atoms: _295  and  _296
REMARK  122  A    between atoms: _299  and  _301
REMARK  123  A    between atoms: _301  and  _302
REMARK  124  A    between atoms: _301  and  _304
REMARK  125  A    between atoms: _304  and  _305
REMARK  126  A    between atoms: _311  and  _312
REMARK  127  A    between atoms: _317  and  _319
REMARK  128  A    between atoms: _319  and  _320
REMARK  129  A    between atoms: _319  and  _322
REMARK  130  A    between atoms: _322  and  _323
REMARK  131  A    between atoms: _325  and  _327
REMARK  132  A    between atoms: _327  and  _328
REMARK  133  A    between atoms: _327  and  _330
REMARK  134  A    between atoms: _330  and  _331
REMARK  135  A    between atoms: _334  and  _336
REMARK  136  A    between atoms: _336  and  _337
REMARK  137  A    between atoms: _336  and  _339
REMARK  138  A    between atoms: _339  and  _340
REMARK  139  A    between atoms: _343  and  _345
REMARK  140  A    between atoms: _345  and  _346
REMARK  141  A    between atoms: _345  and  _348
REMARK  142  A    between atoms: _348  and  _349
REMARK  143  A    between atoms: _352  and  _354
REMARK  144  A    between atoms: _354  and  _355
REMARK  145  A    between atoms: _354  and  _357
REMARK  146  A    between atoms: _357  and  _358
REMARK  147  A    between atoms: _361  and  _363
REMARK  148  A    between atoms: _363  and  _364
REMARK  149  A    between atoms: _363  and  _366
REMARK  150  A    between atoms: _369  and  _371
REMARK  151  A    between atoms: _371  and  _372
REMARK  152  A    between atoms: _375  and  _377
REMARK  153  A    between atoms: _377  and  _378
REMARK  154  A    between atoms: _377  and  _380
REMARK  155  A    between atoms: _380  and  _381
REMARK  156  A    between atoms: _384  and  _386
REMARK  157  A    between atoms: _386  and  _387
REMARK  158  A    between atoms: _386  and  _389
REMARK  159  A    between atoms: _389  and  _390
REMARK  160  A    between atoms: _393  and  _395
REMARK  161  A    between atoms: _395  and  _396
REMARK  162  A    between atoms: _395  and  _398
REMARK  163  A    between atoms: _398  and  _399
REMARK  164  A    between atoms: _402  and  _404
REMARK  165  A    between atoms: _404  and  _405
REMARK  166  A    between atoms: _404  and  _407
REMARK  167  A    between atoms: _407  and  _408
REMARK  168  A    between atoms: _408  and  _409
REMARK  169  A    between atoms: _412  and  _414
REMARK  170  A    between atoms: _414  and  _415
REMARK  171  A    between atoms: _414  and  _417
REMARK  172  A    between atoms: _417  and  _418
REMARK  173  A    between atoms: _421  and  _423
REMARK  174  A    between atoms: _423  and  _424
REMARK  175  A    between atoms: _423  and  _426
REMARK  176  A    between atoms: _426  and  _427
REMARK  177  A    between atoms: _430  and  _432
REMARK  178  A    between atoms: _432  and  _433
REMARK  179  A    between atoms: _432  and  _435
REMARK  180  A    between atoms: _435  and  _436
REMARK  181  A    between atoms: _439  and  _441
REMARK  182  A    between atoms: _441  and  _442
REMARK  183  A    between atoms: _441  and  _444
REMARK  184  A    between atoms: _444  and  _445
REMARK  185  A    between atoms: _448  and  _450
REMARK  186  A    between atoms: _450  and  _451
REMARK  187  A    between atoms: _450  and  _453
REMARK  188  A    between atoms: _453  and  _454
REMARK  189  A    between atoms: _454  and  _455
REMARK  190  A    between atoms: _455  and  _456
REMARK  191  A    between atoms: _456  and  _457
REMARK  192  A    between atoms: _461  and  _463
REMARK  193  A    between atoms: _463  and  _464
REMARK  194  A    between atoms: _463  and  _466
REMARK  195  A    between atoms: _466  and  _467
REMARK  196  A    between atoms: _470  and  _472
REMARK  197  A    between atoms: _472  and  _473
REMARK  198  A    between atoms: _472  and  _475
REMARK  199  A    between atoms: _475  and  _476
REMARK  200  A    between atoms: _479  and  _481
REMARK  201  A    between atoms: _481  and  _482
REMARK  202  A    between atoms: _481  and  _484
REMARK  203  A    between atoms: _486  and  _488
REMARK  204  A    between atoms: _488  and  _489
REMARK  205  A    between atoms: _488  and  _491
REMARK  206  A    between atoms: _491  and  _492
REMARK  207  A    between atoms: _495  and  _497
REMARK  208  A    between atoms: _497  and  _498
REMARK  209  A    between atoms: _497  and  _500
REMARK  210  A    between atoms: _500  and  _501
REMARK  211  A    between atoms: _501  and  _502
REMARK  212  A    between atoms: _507  and  _509
REMARK  213  A    between atoms: _509  and  _510
REMARK  214  A    between atoms: _509  and  _512
REMARK  215  A    between atoms: _512  and  _513
REMARK  216  A    between atoms: _513  and  _514
REMARK  217  A    between atoms: _519  and  _521
REMARK  218  A    between atoms: _521  and  _522
REMARK  219  A    between atoms: _521  and  _524
REMARK  220  A    between atoms: _524  and  _525
REMARK  221  A    between atoms: _527  and  _529
REMARK  222  A    between atoms: _529  and  _530
REMARK  223  A    between atoms: _529  and  _532
REMARK  224  A    between atoms: _532  and  _533
REMARK  225  A    between atoms: _536  and  _538
REMARK  226  A    between atoms: _538  and  _539
REMARK  227  A    between atoms: _538  and  _541
REMARK  228  A    between atoms: _541  and  _542
REMARK  229  A    between atoms: _542  and  _543
REMARK                            x       y       z     vdW  Elec       q    Type
REMARK                         _______ _______ _______ _____ _____    ______ ____
ROOT
ATOM      1  CA  THR A   1      12.141  11.587  13.514  0.00  0.00    +0.160 C 
ENDROOT
BRANCH   1   2
ATOM      2  N   THR A   1      12.851  12.571  14.311  0.00  0.00    -0.237 NA
ATOM      3  H   THR A   1      12.533  12.765  15.282  0.00  0.00    +0.142 HD
ENDBRANCH   1   2
BRANCH   1   4
ATOM      4  CB  THR A   1      11.173  10.767  14.374  0.00  0.00    +0.134 C 
ATOM      5  CG2 THR A   1      10.349   9.823  13.504  0.00  0.00    +0.034 C 
BRANCH   4   6
ATOM      6  OG1 THR A   1      11.923  10.008  15.326  0.00  0.00    -0.383 OA
ATOM      7  HG1 THR A   1      12.542   9.401  14.848  0.00  0.00    +0.210 HD
ENDBRANCH   4   6
ENDBRANCH   1   4
BRANCH   1   8
ATOM      8  C   THR A   1      11.360  12.253  12.398  0.00  0.00    +0.227 C 
ATOM      9  O   THR A   1      11.350  11.775  11.264  0.00  0.00    -0.287 OA
ENDBRANCH   1   8
TORSDOF 4
REMARK  Name = ../refined-set-2016/3lcu/3lcu_pocket.pdb
REMARK  229 active torsions:
REMARK  status: ('A' for Active; 'I' for Inactive)
REMARK    1  A    between atoms: _1  and  _3
REMARK    2  A    between atoms: _3  and  _4
REMARK    3  A    between atoms: _3  and  _6
REMARK    4  A    between atoms: _9  and  _11
REMARK    5  A    between atoms: _11  and  _12
REMARK    6  A    between atoms: _15  and  _17
REMARK    7  A    between atoms: _17  and  _18
REMARK    8  A    between atoms: _17  and  _20
REMARK    9  A    between atoms: _20  and  _21
REMARK   10  A    between atoms: _24  and  _26
REMARK   11  A    between atoms: _26  and  _27
REMARK   12  A    between atoms: _26  and  _29
REMARK   13  A    between atoms: _29  and  _30
REMARK   14  A    between atoms: _30  and  _31
REMARK   15  A    between atoms: _31  and  _32
REMARK   16  A    between atoms: _41  and  _43
REMARK   17  A    between atoms: _43  and  _44
REMARK   18  A    between atoms: _43  and  _46
REMARK   19  A    between atoms: _46  and  _47
REMARK   20  A    between atoms: _50  and  _52
REMARK   21  A    between atoms: _52  and  _53
REMARK   22  A    between atoms: _55  and  _57
REMARK   23  A    between atoms: _57  and  _58
REMARK   24  A    between atoms: _57  and  _60
REMARK   25  A    between atoms: _60  and  _61
REMARK   26  A    between atoms: _64  and  _66
REMARK   27  A    between atoms: _66  and  _67
REMARK   28  A    between atoms: _66  and  _69
REMARK   29  A    between atoms: _69  and  _70
REMARK   30  A    between atoms: _70  and  _71
REMARK   31  A    between atoms: _74  and  _76
REMARK   32  A    between atoms: _76  and  _77
REMARK   33  A    between atoms: _76  and  _79
REMARK   34  A    between atoms: _79  and  _80
REMARK   35  A    between atoms: _83  and  _85
REMARK   36  A    between atoms: _85  and  _86
REMARK   37  A    between atoms: _85  and  _88
REMARK   38  A    between atoms: _88  and  _89
REMARK   39  A    between atoms: _94  and  _95
REMARK   40  A    between atoms: _97  and  _99
REMARK   41  A    between atoms: _99  and  _100
REMARK   42  A    between atoms: _102  and  _104
REMARK   43  A    between atoms: _104  and  _105
REMARK   44  A    between atoms: _108  and  _110
REMARK   45  A    between atoms: _110  and  _111
REMARK   46  A    between atoms: _110  and  _113
REMARK   47  A    between atoms: _113  and  _114
REMARK   48  A    between atoms: _120  and  _122
REMARK   49  A    between atoms: _122  and  _123
REMARK   50  A    between atoms: _122  and  _125
REMARK   51  A    between atoms: _125  and  _126
REMARK   52  A    between atoms: _129  and  _131
REMARK   53  A    between atoms: _131  and  _132
REMARK   54  A    between atoms: _131  and  _134
REMARK   55  A    between atoms: _134  and  _135
REMARK   56  A    between atoms: _135  and  _136
REMARK   57  A    between atoms: _138  and  _140
REMARK   58  A    between atoms: _140  and  _141
REMARK   59  A    between atoms: _140  and  _143
REMARK   60  A    between atoms: _143  and  _144
REMARK   61  A    between atoms: _149  and  _151
REMARK   62  A    between atoms: _151  and  _152
REMARK   63  A    between atoms: _151  and  _154
REMARK   64  A    between atoms: _154  and  _155
REMARK   65  A    between atoms: _158  and  _160
REMARK   66  A    between atoms: _160  and  _161
REMARK   67  A    between atoms: _160  and  _163
REMARK   68  A    between atoms: _163  and  _164
REMARK   69  A    between atoms: _166  and  _168
REMARK   70  A    between atoms: _168  and  _169
REMARK   71  A    between atoms: _168  and  _171
REMARK   72  A    between atoms: _171  and  _172
REMARK   73  A    between atoms: _175  and  _177
REMARK   74  A    between atoms: _177  and  _178
REMARK   75  A    between atoms: _177  and  _180
REMARK   76  A    between atoms: _180  and  _181
REMARK   77  A    between atoms: _181  and  _182
REMARK   78  A    between atoms: _182  and  _183
REMARK   79  A    between atoms: _192  and  _194
REMARK   80  A    between atoms: _194  and  _195
REMARK   81  A    between atoms: _194  and  _197
REMARK   82  A    between atoms: _197  and  _198
REMARK   83  A    between atoms: _198  and  _199
REMARK   84  A    between atoms: _202  and  _204
REMARK   85  A    between atoms: _204  and  _205
REMARK   86  A    between atoms: _204  and  _207
REMARK   87  A    between atoms: _207  and  _208
REMARK   88  A    between atoms: _208  and  _209
REMARK   89  A    between atoms: _209  and  _210
REMARK   90  A    between atoms: _219  and  _221
REMARK   91  A    between atoms: _221  and  _222
REMARK   92  A    between atoms: _221  and  _224
REMARK   93  A    between atoms: _224  and  _225
REMARK   94  A    between atoms: _228  and  _230
REMARK   95  A    between atoms: _230  and  _231
REMARK   96  A    between atoms: _230  and  _233
REMARK   97  A    between atoms: _233  and  _234
REMARK   98  A    between atoms: _240  and  _242
REMARK   99  A    between atoms: _242  and  _243
REMARK  100  A    between atoms: _242  and  _245
REMARK  101  A    between atoms: _245  and  _246
REMARK  102  A    between atoms: _251  and  _252
REMARK  103  A    between atoms: _254  and  _256
REMARK  104  A    between atoms: _256  and  _257
REMARK  105  A    between atoms: _256  and  _259
REMARK  106  A    between atoms: _259  and  _260
REMARK  107  A    between atoms: _263  and  _265
REMARK  108  A    between atoms: _265  and  _266
REMARK  109  A    between atoms: _265  and  _268
REMARK  110  A    between atoms: _268  and  _269
REMARK  111  A    between atoms: _272  and  _274
REMARK  112  A    between atoms: _274  and  _275
REMARK  113  A    between atoms: _278  and  _280
REMARK  114  A    between atoms: _280  and  _281
REMARK  115  A    between atoms: _280  and  _283
REMARK  116  A    between atoms: _285  and  _287
REMARK  117  A    between atoms: _287  and  _288
REMARK  118  A    between atoms: _290  and  _292
REMARK  119  A    between atoms: _292  and  _293
REMARK  120  A    between atoms: _292  and  _295
REMARK  121  A    between atoms: _295  and  _296
REMARK  122  A    between atoms: _299  and  _301
REMARK  123  A    between atoms: _301  and  _302
REMARK  124  A    between atoms: _301  and  _304
REMARK  125  A    between atoms: _304  and  _305
REMARK  126  A    between atoms: _311  and  _312
REMARK  127  A    between atoms: _317  and  _319
REMARK  128  A    between atoms: _319  and  _320
REMARK  129  A    between atoms: _319  and  _322
REMARK  130  A    between atoms: _322  and  _323
REMARK  131  A    between atoms: _325  and  _327
REMARK  132  A    between atoms: _327  and  _328
REMARK  133  A    between atoms: _327  and  _330
REMARK  134  A    between atoms: _330  and  _331
REMARK  135  A    between atoms: _334  and  _336
REMARK  136  A    between atoms: _336  and  _337
REMARK  137  A    between atoms: _336  and  _339
REMARK  138  A    between atoms: _339  and  _340
REMARK  139  A    between atoms: _343  and  _345
REMARK  140  A    between atoms: _345  and  _346
REMARK  141  A    between atoms: _345  and  _348
REMARK  142  A    between atoms: _348  and  _349
REMARK  143  A    between atoms: _352  and  _354
REMARK  144  A    between atoms: _354  and  _355
REMARK  145  A    between atoms: _354  and  _357
REMARK  146  A    between atoms: _357  and  _358
REMARK  147  A    between atoms: _361  and  _363
REMARK  148  A    between atoms: _363  and  _364
REMARK  149  A    between atoms: _363  and  _366
REMARK  150  A    between atoms: _369  and  _371
REMARK  151  A    between atoms: _371  and  _372
REMARK  152  A    between atoms: _375  and  _377
REMARK  153  A    between atoms: _377  and  _378
REMARK  154  A    between atoms: _377  and  _380
REMARK  155  A    between atoms: _380  and  _381
REMARK  156  A    between atoms: _384  and  _386
REMARK  157  A    between atoms: _386  and  _387
REMARK  158  A    between atoms: _386  and  _389
REMARK  159  A    between atoms: _389  and  _390
REMARK  160  A    between atoms: _393  and  _395
REMARK  161  A    between atoms: _395  and  _396
REMARK  162  A    between atoms: _395  and  _398
REMARK  163  A    between atoms: _398  and  _399
REMARK  164  A    between atoms: _402  and  _404
REMARK  165  A    between atoms: _404  and  _405
REMARK  166  A    between atoms: _404  and  _407
REMARK  167  A    between atoms: _407  and  _408
REMARK  168  A    between atoms: _408  and  _409
REMARK  169  A    between atoms: _412  and  _414
REMARK  170  A    between atoms: _414  and  _415
REMARK  171  A    between atoms: _414  and  _417
REMARK  172  A    between atoms: _417  and  _418
REMARK  173  A    between atoms: _421  and  _423
REMARK  174  A    between atoms: _423  and  _424
REMARK  175  A    between atoms: _423  and  _426
REMARK  176  A    between atoms: _426  and  _427
REMARK  177  A    between atoms: _430  and  _432
REMARK  178  A    between atoms: _432  and  _433
REMARK  179  A    between atoms: _432  and  _435
REMARK  180  A    between atoms: _435  and  _436
REMARK  181  A    between atoms: _439  and  _441
REMARK  182  A    between atoms: _441  and  _442
REMARK  183  A    between atoms: _441  and  _444
REMARK  184  A    between atoms: _444  and  _445
REMARK  185  A    between atoms: _448  and  _450
REMARK  186  A    between atoms: _450  and  _451
REMARK  187  A    between atoms: _450  and  _453
REMARK  188  A    between atoms: _453  and  _454
REMARK  189  A    between atoms: _454  and  _455
REMARK  190  A    between atoms: _455  and  _456
REMARK  191  A    between atoms: _456  and  _457
REMARK  192  A    between atoms: _461  and  _463
REMARK  193  A    between atoms: _463  and  _464
REMARK  194  A    between atoms: _463  and  _466
REMARK  195  A    between atoms: _466  and  _467
REMARK  196  A    between atoms: _470  and  _472
REMARK  197  A    between atoms: _472  and  _473
REMARK  198  A    between atoms: _472  and  _475
REMARK  199  A    between atoms: _475  and  _476
REMARK  200  A    between atoms: _479  and  _481
REMARK  201  A    between atoms: _481  and  _482
REMARK  202  A    between atoms: _481  and  _484
REMARK  203  A    between atoms: _486  and  _488
REMARK  204  A    between atoms: _488  and  _489
REMARK  205  A    between atoms: _488  and  _491
REMARK  206  A    between atoms: _491  and  _492
REMARK  207  A    between atoms: _495  and  _497
REMARK  208  A    between atoms: _497  and  _498
REMARK  209  A    between atoms: _497  and  _500
REMARK  210  A    between atoms: _500  and  _501
REMARK  211  A    between atoms: _501  and  _502
REMARK  212  A    between atoms: _507  and  _509
REMARK  213  A    between atoms: _509  and  _510
REMARK  214  A    between atoms: _509  and  _512
REMARK  215  A    between atoms: _512  and  _513
REMARK  216  A    between atoms: _513  and  _514
REMARK  217  A    between atoms: _519  and  _521
REMARK  218  A    between atoms: _521  and  _522
REMARK  219  A    between atoms: _521  and  _524
REMARK  220  A    between atoms: _524  and  _525
REMARK  221  A    between atoms: _527  and  _529
REMARK  222  A    between atoms: _529  and  _530
REMARK  223  A    between atoms: _529  and  _532
REMARK  224  A    between atoms: _532  and  _533
REMARK  225  A    between atoms: _536  and  _538
REMARK  226  A    between atoms: _538  and  _539
REMARK  227  A    between atoms: _538  and  _541
REMARK  228  A    between atoms: _541  and  _542
REMARK  229  A    between atoms: _542  and  _543
REMARK                            x       y       z     vdW  Elec       q    Type
REMARK                         _______ _______ _______ _____ _____    ______ ____
ROOT
ATOM      1  CA  ARG A   1      14.357  12.213   8.897  0.00  0.00    +0.145 C 
ENDROOT
BRANCH   1   2
ATOM      2  C   ARG A   1      13.316  11.732   7.886  0.00  0.00    +0.238 C 
ATOM      3  N   LEU A   2      12.078  11.552   8.342  0.00  0.00    -0.298 N 
ATOM      4  H   LEU A   2      11.872  11.726   9.346  0.00  0.00    +0.150 HD
ATOM      5  O   ARG A   1      13.628  11.528   6.712  0.00  0.00    -0.274 OA
BRANCH   3   6
ATOM      6  CA  LEU A   2      11.005  11.114   7.452  0.00  0.00    +0.137 C 
BRANCH   6   7
ATOM      7  C   LEU A   2      10.717  12.152   6.373  0.00  0.00    +0.227 C 
ATOM      8  O   LEU A   2      10.527  11.808   5.206  0.00  0.00    -0.286 OA
ENDBRANCH   6   7
BRANCH   6   9
ATOM      9  CB  LEU A   2       9.722  10.835   8.242  0.00  0.00    +0.028 C 
BRANCH   9  10
ATOM     10  CG  LEU A   2       9.580   9.435   8.845  0.00  0.00    +0.002 C 
ATOM     11  CD2 LEU A   2      10.684   9.179   9.859  0.00  0.00    +0.000 C 
ATOM     12  CD1 LEU A   2       8.210   9.313   9.503  0.00  0.00    +0.000 C 
ENDBRANCH   9  10
ENDBRANCH   6   9
ENDBRANCH   3   6
ENDBRANCH   1   2
BRANCH   1  13
ATOM     13  N   ARG A   1      13.822  13.338   9.654  0.00  0.00    -0.238 NA
ATOM     14  H   ARG A   1      13.664  13.235  10.677  0.00  0.00    +0.142 HD
ENDBRANCH   1  13
BRANCH   1  15
ATOM     15  CB  ARG A   1      14.736  11.065   9.834  0.00  0.00    +0.030 C 
BRANCH  15  16
ATOM     16  CG  ARG A   1      15.319   9.854   9.109  0.00  0.00    +0.045 C 
BRANCH  16  17
ATOM     17  CD  ARG A   1      15.908   8.856  10.090  0.00  0.00    +0.174 C 
BRANCH  17  18
ATOM     18  NE  ARG A   1      14.911   8.361  11.034  0.00  0.00    -0.265 N 
ATOM     19  HE  ARG A   1      14.999   8.646  12.030  0.00  0.00    +0.259 HD
ATOM     20  CZ  ARG A   1      13.899   7.570  10.700  0.00  0.00    +0.342 C 
ATOM     21  NH2 ARG A   1      13.026   7.178  11.623  0.00  0.00    -0.292 N 
ATOM     22 HH21 ARG A   1      13.136   7.491  12.609  0.00  0.00    +0.255 HD
ATOM     23 HH22 ARG A   1      12.234   6.558  11.359  0.00  0.00    +0.255 HD
ATOM     24  NH1 ARG A   1      13.753   7.180   9.439  0.00  0.00    -0.292 N 
ATOM     25 HH11 ARG A   1      12.961   6.560   9.175  0.00  0.00    +0.255 HD
ATOM     26 HH12 ARG A   1      14.431   7.494   8.716  0.00  0.00    +0.255 HD
ENDBRANCH  17  18
ENDBRANCH  16  17
ENDBRANCH  15  16
ENDBRANCH   1  15
TORSDOF 10
REMARK  Name = ../refined-set-2016/3lcu/3lcu_pocket.pdb
REMARK  229 active torsions:
REMARK  status: ('A' for Active; 'I' for Inactive)
REMARK    1  A    between atoms: _1  and  _3
REMARK    2  A    between atoms: _3  and  _4
REMARK    3  A    between atoms: _3  and  _6
REMARK    4  A    between atoms: _9  and  _11
REMARK    5  A    between atoms: _11  and  _12
REMARK    6  A    between atoms: _15  and  _17
REMARK    7  A    between atoms: _17  and  _18
REMARK    8  A    between atoms: _17  and  _20
REMARK    9  A    between atoms: _20  and  _21
REMARK   10  A    between atoms: _24  and  _26
REMARK   11  A    between atoms: _26  and  _27
REMARK   12  A    between atoms: _26  and  _29
REMARK   13  A    between atoms: _29  and  _30
REMARK   14  A    between atoms: _30  and  _31
REMARK   15  A    between atoms: _31  and  _32
REMARK   16  A    between atoms: _41  and  _43
REMARK   17  A    between atoms: _43  and  _44
REMARK   18  A    between atoms: _43  and  _46
REMARK   19  A    between atoms: _46  and  _47
REMARK   20  A    between atoms: _50  and  _52
REMARK   21  A    between atoms: _52  and  _53
REMARK   22  A    between atoms: _55  and  _57
REMARK   23  A    between atoms: _57  and  _58
REMARK   24  A    between atoms: _57  and  _60
REMARK   25  A    between atoms: _60  and  _61
REMARK   26  A    between atoms: _64  and  _66
REMARK   27  A    between atoms: _66  and  _67
REMARK   28  A    between atoms: _66  and  _69
REMARK   29  A    between atoms: _69  and  _70
REMARK   30  A    between atoms: _70  and  _71
REMARK   31  A    between atoms: _74  and  _76
REMARK   32  A    between atoms: _76  and  _77
REMARK   33  A    between atoms: _76  and  _79
REMARK   34  A    between atoms: _79  and  _80
REMARK   35  A    between atoms: _83  and  _85
REMARK   36  A    between atoms: _85  and  _86
REMARK   37  A    between atoms: _85  and  _88
REMARK   38  A    between atoms: _88  and  _89
REMARK   39  A    between atoms: _94  and  _95
REMARK   40  A    between atoms: _97  and  _99
REMARK   41  A    between atoms: _99  and  _100
REMARK   42  A    between atoms: _102  and  _104
REMARK   43  A    between atoms: _104  and  _105
REMARK   44  A    between atoms: _108  and  _110
REMARK   45  A    between atoms: _110  and  _111
REMARK   46  A    between atoms: _110  and  _113
REMARK   47  A    between atoms: _113  and  _114
REMARK   48  A    between atoms: _120  and  _122
REMARK   49  A    between atoms: _122  and  _123
REMARK   50  A    between atoms: _122  and  _125
REMARK   51  A    between atoms: _125  and  _126
REMARK   52  A    between atoms: _129  and  _131
REMARK   53  A    between atoms: _131  and  _132
REMARK   54  A    between atoms: _131  and  _134
REMARK   55  A    between atoms: _134  and  _135
REMARK   56  A    between atoms: _135  and  _136
REMARK   57  A    between atoms: _138  and  _140
REMARK   58  A    between atoms: _140  and  _141
REMARK   59  A    between atoms: _140  and  _143
REMARK   60  A    between atoms: _143  and  _144
REMARK   61  A    between atoms: _149  and  _151
REMARK   62  A    between atoms: _151  and  _152
REMARK   63  A    between atoms: _151  and  _154
REMARK   64  A    between atoms: _154  and  _155
REMARK   65  A    between atoms: _158  and  _160
REMARK   66  A    between atoms: _160  and  _161
REMARK   67  A    between atoms: _160  and  _163
REMARK   68  A    between atoms: _163  and  _164
REMARK   69  A    between atoms: _166  and  _168
REMARK   70  A    between atoms: _168  and  _169
REMARK   71  A    between atoms: _168  and  _171
REMARK   72  A    between atoms: _171  and  _172
REMARK   73  A    between atoms: _175  and  _177
REMARK   74  A    between atoms: _177  and  _178
REMARK   75  A    between atoms: _177  and  _180
REMARK   76  A    between atoms: _180  and  _181
REMARK   77  A    between atoms: _181  and  _182
REMARK   78  A    between atoms: _182  and  _183
REMARK   79  A    between atoms: _192  and  _194
REMARK   80  A    between atoms: _194  and  _195
REMARK   81  A    between atoms: _194  and  _197
REMARK   82  A    between atoms: _197  and  _198
REMARK   83  A    between atoms: _198  and  _199
REMARK   84  A    between atoms: _202  and  _204
REMARK   85  A    between atoms: _204  and  _205
REMARK   86  A    between atoms: _204  and  _207
REMARK   87  A    between atoms: _207  and  _208
REMARK   88  A    between atoms: _208  and  _209
REMARK   89  A    between atoms: _209  and  _210
REMARK   90  A    between atoms: _219  and  _221
REMARK   91  A    between atoms: _221  and  _222
REMARK   92  A    between atoms: _221  and  _224
REMARK   93  A    between atoms: _224  and  _225
REMARK   94  A    between atoms: _228  and  _230
REMARK   95  A    between atoms: _230  and  _231
REMARK   96  A    between atoms: _230  and  _233
REMARK   97  A    between atoms: _233  and  _234
REMARK   98  A    between atoms: _240  and  _242
REMARK   99  A    between atoms: _242  and  _243
REMARK  100  A    between atoms: _242  and  _245
REMARK  101  A    between atoms: _245  and  _246
REMARK  102  A    between atoms: _251  and  _252
REMARK  103  A    between atoms: _254  and  _256
REMARK  104  A    between atoms: _256  and  _257
REMARK  105  A    between atoms: _256  and  _259
REMARK  106  A    between atoms: _259  and  _260
REMARK  107  A    between atoms: _263  and  _265
REMARK  108  A    between atoms: _265  and  _266
REMARK  109  A    between atoms: _265  and  _268
REMARK  110  A    between atoms: _268  and  _269
REMARK  111  A    between atoms: _272  and  _274
REMARK  112  A    between atoms: _274  and  _275
REMARK  113  A    between atoms: _278  and  _280
REMARK  114  A    between atoms: _280  and  _281
REMARK  115  A    between atoms: _280  and  _283
REMARK  116  A    between atoms: _285  and  _287
REMARK  117  A    between atoms: _287  and  _288
REMARK  118  A    between atoms: _290  and  _292
REMARK  119  A    between atoms: _292  and  _293
REMARK  120  A    between atoms: _292  and  _295
REMARK  121  A    between atoms: _295  and  _296
REMARK  122  A    between atoms: _299  and  _301
REMARK  123  A    between atoms: _301  and  _302
REMARK  124  A    between atoms: _301  and  _304
REMARK  125  A    between atoms: _304  and  _305
REMARK  126  A    between atoms: _311  and  _312
REMARK  127  A    between atoms: _317  and  _319
REMARK  128  A    between atoms: _319  and  _320
REMARK  129  A    between atoms: _319  and  _322
REMARK  130  A    between atoms: _322  and  _323
REMARK  131  A    between atoms: _325  and  _327
REMARK  132  A    between atoms: _327  and  _328
REMARK  133  A    between atoms: _327  and  _330
REMARK  134  A    between atoms: _330  and  _331
REMARK  135  A    between atoms: _334  and  _336
REMARK  136  A    between atoms: _336  and  _337
REMARK  137  A    between atoms: _336  and  _339
REMARK  138  A    between atoms: _339  and  _340
REMARK  139  A    between atoms: _343  and  _345
REMARK  140  A    between atoms: _345  and  _346
REMARK  141  A    between atoms: _345  and  _348
REMARK  142  A    between atoms: _348  and  _349
REMARK  143  A    between atoms: _352  and  _354
REMARK  144  A    between atoms: _354  and  _355
REMARK  145  A    between atoms: _354  and  _357
REMARK  146  A    between atoms: _357  and  _358
REMARK  147  A    between atoms: _361  and  _363
REMARK  148  A    between atoms: _363  and  _364
REMARK  149  A    between atoms: _363  and  _366
REMARK  150  A    between atoms: _369  and  _371
REMARK  151  A    between atoms: _371  and  _372
REMARK  152  A    between atoms: _375  and  _377
REMARK  153  A    between atoms: _377  and  _378
REMARK  154  A    between atoms: _377  and  _380
REMARK  155  A    between atoms: _380  and  _381
REMARK  156  A    between atoms: _384  and  _386
REMARK  157  A    between atoms: _386  and  _387
REMARK  158  A    between atoms: _386  and  _389
REMARK  159  A    between atoms: _389  and  _390
REMARK  160  A    between atoms: _393  and  _395
REMARK  161  A    between atoms: _395  and  _396
REMARK  162  A    between atoms: _395  and  _398
REMARK  163  A    between atoms: _398  and  _399
REMARK  164  A    between atoms: _402  and  _404
REMARK  165  A    between atoms: _404  and  _405
REMARK  166  A    between atoms: _404  and  _407
REMARK  167  A    between atoms: _407  and  _408
REMARK  168  A    between atoms: _408  and  _409
REMARK  169  A    between atoms: _412  and  _414
REMARK  170  A    between atoms: _414  and  _415
REMARK  171  A    between atoms: _414  and  _417
REMARK  172  A    between atoms: _417  and  _418
REMARK  173  A    between atoms: _421  and  _423
REMARK  174  A    between atoms: _423  and  _424
REMARK  175  A    between atoms: _423  and  _426
REMARK  176  A    between atoms: _426  and  _427
REMARK  177  A    between atoms: _430  and  _432
REMARK  178  A    between atoms: _432  and  _433
REMARK  179  A    between atoms: _432  and  _435
REMARK  180  A    between atoms: _435  and  _436
REMARK  181  A    between atoms: _439  and  _441
REMARK  182  A    between atoms: _441  and  _442
REMARK  183  A    between atoms: _441  and  _444
REMARK  184  A    between atoms: _444  and  _445
REMARK  185  A    between atoms: _448  and  _450
REMARK  186  A    between atoms: _450  and  _451
REMARK  187  A    between atoms: _450  and  _453
REMARK  188  A    between atoms: _453  and  _454
REMARK  189  A    between atoms: _454  and  _455
REMARK  190  A    between atoms: _455  and  _456
REMARK  191  A    between atoms: _456  and  _457
REMARK  192  A    between atoms: _461  and  _463
REMARK  193  A    between atoms: _463  and  _464
REMARK  194  A    between atoms: _463  and  _466
REMARK  195  A    between atoms: _466  and  _467
REMARK  196  A    between atoms: _470  and  _472
REMARK  197  A    between atoms: _472  and  _473
REMARK  198  A    between atoms: _472  and  _475
REMARK  199  A    between atoms: _475  and  _476
REMARK  200  A    between atoms: _479  and  _481
REMARK  201  A    between atoms: _481  and  _482
REMARK  202  A    between atoms: _481  and  _484
REMARK  203  A    between atoms: _486  and  _488
REMARK  204  A    between atoms: _488  and  _489
REMARK  205  A    between atoms: _488  and  _491
REMARK  206  A    between atoms: _491  and  _492
REMARK  207  A    between atoms: _495  and  _497
REMARK  208  A    between atoms: _497  and  _498
REMARK  209  A    between atoms: _497  and  _500
REMARK  210  A    between atoms: _500  and  _501
REMARK  211  A    between atoms: _501  and  _502
REMARK  212  A    between atoms: _507  and  _509
REMARK  213  A    between atoms: _509  and  _510
REMARK  214  A    between atoms: _509  and  _512
REMARK  215  A    between atoms: _512  and  _513
REMARK  216  A    between atoms: _513  and  _514
REMARK  217  A    between atoms: _519  and  _521
REMARK  218  A    between atoms: _521  and  _522
REMARK  219  A    between atoms: _521  and  _524
REMARK  220  A    between atoms: _524  and  _525
REMARK  221  A    between atoms: _527  and  _529
REMARK  222  A    between atoms: _529  and  _530
REMARK  223  A    between atoms: _529  and  _532
REMARK  224  A    between atoms: _532  and  _533
REMARK  225  A    between atoms: _536  and  _538
REMARK  226  A    between atoms: _538  and  _539
REMARK  227  A    between atoms: _538  and  _541
REMARK  228  A    between atoms: _541  and  _542
REMARK  229  A    between atoms: _542  and  _543
REMARK                            x       y       z     vdW  Elec       q    Type
REMARK                         _______ _______ _______ _____ _____    ______ ____
ROOT
ATOM      1  C   GLY A   1       5.105   7.031   8.865  0.00  0.00    +0.240 C 
ATOM      2  O   GLY A   1       5.442   6.033   9.502  0.00  0.00    -0.274 OA
ATOM      3  N   LEU A   2       4.662   8.141   9.445  0.00  0.00    -0.298 N 
ATOM      4  H   LEU A   2       4.398   8.952   8.850  0.00  0.00    +0.150 HD
ENDROOT
BRANCH   1   5
ATOM      5  CA  GLY A   1       5.182   7.052   7.349  0.00  0.00    +0.169 C 
BRANCH   5   6
ATOM      6  N   GLY A   1       4.025   7.707   6.767  0.00  0.00    -0.236 NA
ATOM      7  H   GLY A   1       4.153   8.565   6.193  0.00  0.00    +0.142 HD
ENDBRANCH   5   6
ENDBRANCH   1   5
BRANCH   3   8
ATOM      8  CA  LEU A   2       4.535   8.254  10.892  0.00  0.00    +0.137 C 
BRANCH   8   9
ATOM      9  C   LEU A   2       3.479   7.296  11.441  0.00  0.00    +0.227 C 
ATOM     10  O   LEU A   2       3.606   6.786  12.558  0.00  0.00    -0.286 OA
ENDBRANCH   8   9
BRANCH   8  11
ATOM     11  CB  LEU A   2       4.182   9.694  11.274  0.00  0.00    +0.028 C 
BRANCH  11  12
ATOM     12  CG  LEU A   2       5.335  10.704  11.202  0.00  0.00    +0.002 C 
ATOM     13  CD2 LEU A   2       6.335  10.403  12.307  0.00  0.00    +0.000 C 
ATOM     14  CD1 LEU A   2       4.812  12.118  11.337  0.00  0.00    +0.000 C 
ENDBRANCH  11  12
ENDBRANCH   8  11
ENDBRANCH   3   8
TORSDOF 6
REMARK  Name = ../refined-set-2016/3lcu/3lcu_pocket.pdb
REMARK  229 active torsions:
REMARK  status: ('A' for Active; 'I' for Inactive)
REMARK    1  A    between atoms: _1  and  _3
REMARK    2  A    between atoms: _3  and  _4
REMARK    3  A    between atoms: _3  and  _6
REMARK    4  A    between atoms: _9  and  _11
REMARK    5  A    between atoms: _11  and  _12
REMARK    6  A    between atoms: _15  and  _17
REMARK    7  A    between atoms: _17  and  _18
REMARK    8  A    between atoms: _17  and  _20
REMARK    9  A    between atoms: _20  and  _21
REMARK   10  A    between atoms: _24  and  _26
REMARK   11  A    between atoms: _26  and  _27
REMARK   12  A    between atoms: _26  and  _29
REMARK   13  A    between atoms: _29  and  _30
REMARK   14  A    between atoms: _30  and  _31
REMARK   15  A    between atoms: _31  and  _32
REMARK   16  A    between atoms: _41  and  _43
REMARK   17  A    between atoms: _43  and  _44
REMARK   18  A    between atoms: _43  and  _46
REMARK   19  A    between atoms: _46  and  _47
REMARK   20  A    between atoms: _50  and  _52
REMARK   21  A    between atoms: _52  and  _53
REMARK   22  A    between atoms: _55  and  _57
REMARK   23  A    between atoms: _57  and  _58
REMARK   24  A    between atoms: _57  and  _60
REMARK   25  A    between atoms: _60  and  _61
REMARK   26  A    between atoms: _64  and  _66
REMARK   27  A    between atoms: _66  and  _67
REMARK   28  A    between atoms: _66  and  _69
REMARK   29  A    between atoms: _69  and  _70
REMARK   30  A    between atoms: _70  and  _71
REMARK   31  A    between atoms: _74  and  _76
REMARK   32  A    between atoms: _76  and  _77
REMARK   33  A    between atoms: _76  and  _79
REMARK   34  A    between atoms: _79  and  _80
REMARK   35  A    between atoms: _83  and  _85
REMARK   36  A    between atoms: _85  and  _86
REMARK   37  A    between atoms: _85  and  _88
REMARK   38  A    between atoms: _88  and  _89
REMARK   39  A    between atoms: _94  and  _95
REMARK   40  A    between atoms: _97  and  _99
REMARK   41  A    between atoms: _99  and  _100
REMARK   42  A    between atoms: _102  and  _104
REMARK   43  A    between atoms: _104  and  _105
REMARK   44  A    between atoms: _108  and  _110
REMARK   45  A    between atoms: _110  and  _111
REMARK   46  A    between atoms: _110  and  _113
REMARK   47  A    between atoms: _113  and  _114
REMARK   48  A    between atoms: _120  and  _122
REMARK   49  A    between atoms: _122  and  _123
REMARK   50  A    between atoms: _122  and  _125
REMARK   51  A    between atoms: _125  and  _126
REMARK   52  A    between atoms: _129  and  _131
REMARK   53  A    between atoms: _131  and  _132
REMARK   54  A    between atoms: _131  and  _134
REMARK   55  A    between atoms: _134  and  _135
REMARK   56  A    between atoms: _135  and  _136
REMARK   57  A    between atoms: _138  and  _140
REMARK   58  A    between atoms: _140  and  _141
REMARK   59  A    between atoms: _140  and  _143
REMARK   60  A    between atoms: _143  and  _144
REMARK   61  A    between atoms: _149  and  _151
REMARK   62  A    between atoms: _151  and  _152
REMARK   63  A    between atoms: _151  and  _154
REMARK   64  A    between atoms: _154  and  _155
REMARK   65  A    between atoms: _158  and  _160
REMARK   66  A    between atoms: _160  and  _161
REMARK   67  A    between atoms: _160  and  _163
REMARK   68  A    between atoms: _163  and  _164
REMARK   69  A    between atoms: _166  and  _168
REMARK   70  A    between atoms: _168  and  _169
REMARK   71  A    between atoms: _168  and  _171
REMARK   72  A    between atoms: _171  and  _172
REMARK   73  A    between atoms: _175  and  _177
REMARK   74  A    between atoms: _177  and  _178
REMARK   75  A    between atoms: _177  and  _180
REMARK   76  A    between atoms: _180  and  _181
REMARK   77  A    between atoms: _181  and  _182
REMARK   78  A    between atoms: _182  and  _183
REMARK   79  A    between atoms: _192  and  _194
REMARK   80  A    between atoms: _194  and  _195
REMARK   81  A    between atoms: _194  and  _197
REMARK   82  A    between atoms: _197  and  _198
REMARK   83  A    between atoms: _198  and  _199
REMARK   84  A    between atoms: _202  and  _204
REMARK   85  A    between atoms: _204  and  _205
REMARK   86  A    between atoms: _204  and  _207
REMARK   87  A    between atoms: _207  and  _208
REMARK   88  A    between atoms: _208  and  _209
REMARK   89  A    between atoms: _209  and  _210
REMARK   90  A    between atoms: _219  and  _221
REMARK   91  A    between atoms: _221  and  _222
REMARK   92  A    between atoms: _221  and  _224
REMARK   93  A    between atoms: _224  and  _225
REMARK   94  A    between atoms: _228  and  _230
REMARK   95  A    between atoms: _230  and  _231
REMARK   96  A    between atoms: _230  and  _233
REMARK   97  A    between atoms: _233  and  _234
REMARK   98  A    between atoms: _240  and  _242
REMARK   99  A    between atoms: _242  and  _243
REMARK  100  A    between atoms: _242  and  _245
REMARK  101  A    between atoms: _245  and  _246
REMARK  102  A    between atoms: _251  and  _252
REMARK  103  A    between atoms: _254  and  _256
REMARK  104  A    between atoms: _256  and  _257
REMARK  105  A    between atoms: _256  and  _259
REMARK  106  A    between atoms: _259  and  _260
REMARK  107  A    between atoms: _263  and  _265
REMARK  108  A    between atoms: _265  and  _266
REMARK  109  A    between atoms: _265  and  _268
REMARK  110  A    between atoms: _268  and  _269
REMARK  111  A    between atoms: _272  and  _274
REMARK  112  A    between atoms: _274  and  _275
REMARK  113  A    between atoms: _278  and  _280
REMARK  114  A    between atoms: _280  and  _281
REMARK  115  A    between atoms: _280  and  _283
REMARK  116  A    between atoms: _285  and  _287
REMARK  117  A    between atoms: _287  and  _288
REMARK  118  A    between atoms: _290  and  _292
REMARK  119  A    between atoms: _292  and  _293
REMARK  120  A    between atoms: _292  and  _295
REMARK  121  A    between atoms: _295  and  _296
REMARK  122  A    between atoms: _299  and  _301
REMARK  123  A    between atoms: _301  and  _302
REMARK  124  A    between atoms: _301  and  _304
REMARK  125  A    between atoms: _304  and  _305
REMARK  126  A    between atoms: _311  and  _312
REMARK  127  A    between atoms: _317  and  _319
REMARK  128  A    between atoms: _319  and  _320
REMARK  129  A    between atoms: _319  and  _322
REMARK  130  A    between atoms: _322  and  _323
REMARK  131  A    between atoms: _325  and  _327
REMARK  132  A    between atoms: _327  and  _328
REMARK  133  A    between atoms: _327  and  _330
REMARK  134  A    between atoms: _330  and  _331
REMARK  135  A    between atoms: _334  and  _336
REMARK  136  A    between atoms: _336  and  _337
REMARK  137  A    between atoms: _336  and  _339
REMARK  138  A    between atoms: _339  and  _340
REMARK  139  A    between atoms: _343  and  _345
REMARK  140  A    between atoms: _345  and  _346
REMARK  141  A    between atoms: _345  and  _348
REMARK  142  A    between atoms: _348  and  _349
REMARK  143  A    between atoms: _352  and  _354
REMARK  144  A    between atoms: _354  and  _355
REMARK  145  A    between atoms: _354  and  _357
REMARK  146  A    between atoms: _357  and  _358
REMARK  147  A    between atoms: _361  and  _363
REMARK  148  A    between atoms: _363  and  _364
REMARK  149  A    between atoms: _363  and  _366
REMARK  150  A    between atoms: _369  and  _371
REMARK  151  A    between atoms: _371  and  _372
REMARK  152  A    between atoms: _375  and  _377
REMARK  153  A    between atoms: _377  and  _378
REMARK  154  A    between atoms: _377  and  _380
REMARK  155  A    between atoms: _380  and  _381
REMARK  156  A    between atoms: _384  and  _386
REMARK  157  A    between atoms: _386  and  _387
REMARK  158  A    between atoms: _386  and  _389
REMARK  159  A    between atoms: _389  and  _390
REMARK  160  A    between atoms: _393  and  _395
REMARK  161  A    between atoms: _395  and  _396
REMARK  162  A    between atoms: _395  and  _398
REMARK  163  A    between atoms: _398  and  _399
REMARK  164  A    between atoms: _402  and  _404
REMARK  165  A    between atoms: _404  and  _405
REMARK  166  A    between atoms: _404  and  _407
REMARK  167  A    between atoms: _407  and  _408
REMARK  168  A    between atoms: _408  and  _409
REMARK  169  A    between atoms: _412  and  _414
REMARK  170  A    between atoms: _414  and  _415
REMARK  171  A    between atoms: _414  and  _417
REMARK  172  A    between atoms: _417  and  _418
REMARK  173  A    between atoms: _421  and  _423
REMARK  174  A    between atoms: _423  and  _424
REMARK  175  A    between atoms: _423  and  _426
REMARK  176  A    between atoms: _426  and  _427
REMARK  177  A    between atoms: _430  and  _432
REMARK  178  A    between atoms: _432  and  _433
REMARK  179  A    between atoms: _432  and  _435
REMARK  180  A    between atoms: _435  and  _436
REMARK  181  A    between atoms: _439  and  _441
REMARK  182  A    between atoms: _441  and  _442
REMARK  183  A    between atoms: _441  and  _444
REMARK  184  A    between atoms: _444  and  _445
REMARK  185  A    between atoms: _448  and  _450
REMARK  186  A    between atoms: _450  and  _451
REMARK  187  A    between atoms: _450  and  _453
REMARK  188  A    between atoms: _453  and  _454
REMARK  189  A    between atoms: _454  and  _455
REMARK  190  A    between atoms: _455  and  _456
REMARK  191  A    between atoms: _456  and  _457
REMARK  192  A    between atoms: _461  and  _463
REMARK  193  A    between atoms: _463  and  _464
REMARK  194  A    between atoms: _463  and  _466
REMARK  195  A    between atoms: _466  and  _467
REMARK  196  A    between atoms: _470  and  _472
REMARK  197  A    between atoms: _472  and  _473
REMARK  198  A    between atoms: _472  and  _475
REMARK  199  A    between atoms: _475  and  _476
REMARK  200  A    between atoms: _479  and  _481
REMARK  201  A    between atoms: _481  and  _482
REMARK  202  A    between atoms: _481  and  _484
REMARK  203  A    between atoms: _486  and  _488
REMARK  204  A    between atoms: _488  and  _489
REMARK  205  A    between atoms: _488  and  _491
REMARK  206  A    between atoms: _491  and  _492
REMARK  207  A    between atoms: _495  and  _497
REMARK  208  A    between atoms: _497  and  _498
REMARK  209  A    between atoms: _497  and  _500
REMARK  210  A    between atoms: _500  and  _501
REMARK  211  A    between atoms: _501  and  _502
REMARK  212  A    between atoms: _507  and  _509
REMARK  213  A    between atoms: _509  and  _510
REMARK  214  A    between atoms: _509  and  _512
REMARK  215  A    between atoms: _512  and  _513
REMARK  216  A    between atoms: _513  and  _514
REMARK  217  A    between atoms: _519  and  _521
REMARK  218  A    between atoms: _521  and  _522
REMARK  219  A    between atoms: _521  and  _524
REMARK  220  A    between atoms: _524  and  _525
REMARK  221  A    between atoms: _527  and  _529
REMARK  222  A    between atoms: _529  and  _530
REMARK  223  A    between atoms: _529  and  _532
REMARK  224  A    between atoms: _532  and  _533
REMARK  225  A    between atoms: _536  and  _538
REMARK  226  A    between atoms: _538  and  _539
REMARK  227  A    between atoms: _538  and  _541
REMARK  228  A    between atoms: _541  and  _542
REMARK  229  A    between atoms: _542  and  _543
REMARK                            x       y       z     vdW  Elec       q    Type
REMARK                         _______ _______ _______ _____ _____    ______ ____
ROOT
ATOM      1  C   TYR A   3       2.506   5.314  15.562  0.00  0.00    +0.241 C 
ATOM      2  O   TYR A   3       1.927   4.642  16.410  0.00  0.00    -0.273 OA
ATOM      3  N   GLY A   4       1.870   6.137  14.736  0.00  0.00    -0.295 N 
ATOM      4  H   GLY A   4       2.415   6.674  14.032  0.00  0.00    +0.150 HD
ENDROOT
BRANCH   1   5
ATOM      5  CA  TYR A   3       4.029   5.254  15.420  0.00  0.00    +0.153 C 
BRANCH   5   8
ATOM      6  C   ILE A   2       5.487   3.825  14.112  0.00  0.00    +0.241 C 
ATOM      7  O   ILE A   2       6.013   3.368  15.124  0.00  0.00    -0.273 OA
ATOM      8  N   TYR A   3       4.509   4.722  14.151  0.00  0.00    -0.297 N 
ATOM      9  H   TYR A   3       4.079   5.050  13.263  0.00  0.00    +0.150 HD
BRANCH   6  10
ATOM     10  CA  ILE A   2       5.946   3.365  12.735  0.00  0.00    +0.148 C 
BRANCH  10  13
ATOM     11  C   GLU A   1       4.184   2.684  11.225  0.00  0.00    +0.238 C 
ATOM     12  O   GLU A   1       4.122   1.570  11.746  0.00  0.00    -0.274 OA
ATOM     13  N   ILE A   2       5.013   3.628  11.652  0.00  0.00    -0.297 N 
ATOM     14  H   ILE A   2       4.995   4.567  11.206  0.00  0.00    +0.150 HD
BRANCH  11  15
ATOM     15  CA  GLU A   1       3.277   3.051  10.053  0.00  0.00    +0.145 C 
BRANCH  15  16
ATOM     16  N   GLU A   1       2.734   4.393  10.161  0.00  0.00    -0.238 NA
ATOM     17  H   GLU A   1       3.034   5.118   9.478  0.00  0.00    +0.142 HD
ENDBRANCH  15  16
BRANCH  15  18
ATOM     18  CB  GLU A   1       4.045   2.914   8.732  0.00  0.00    +0.038 C 
BRANCH  18  19
ATOM     19  CG  GLU A   1       4.877   1.641   8.607  0.00  0.00    +0.116 C 
BRANCH  19  20
ATOM     20  CD  GLU A   1       5.275   1.342   7.170  0.00  0.00    +0.365 C 
ATOM     21  OE2 GLU A   1       4.971   0.230   6.687  0.00  0.00    -0.246 OA
ATOM     22  OE1 GLU A   1       5.890   2.217   6.524  0.00  0.00    -0.246 OA
ENDBRANCH  19  20
ENDBRANCH  18  19
ENDBRANCH  15  18
ENDBRANCH  11  15
ENDBRANCH  10  13
BRANCH  10  23
ATOM     23  CB  ILE A   2       7.324   4.017  12.447  0.00  0.00    +0.027 C 
ATOM     24  CG2 ILE A   2       7.851   3.547  11.105  0.00  0.00    +0.002 C 
BRANCH  23  25
ATOM     25  CG1 ILE A   2       7.196   5.538  12.442  0.00  0.00    +0.002 C 
ATOM     26  CD1 ILE A   2       8.515   6.254  12.240  0.00  0.00    +0.000 C 
ENDBRANCH  23  25
ENDBRANCH  10  23
ENDBRANCH   6  10
ENDBRANCH   5   8
BRANCH   5  27
ATOM     27  CB  TYR A   3       4.613   6.655  15.624  0.00  0.00    +0.055 C 
BRANCH  27  28
ATOM     28  CG  TYR A   3       4.044   7.399  16.813  0.00  0.00    -0.020 A 
ATOM     29  CD2 TYR A   3       4.428   7.072  18.115  0.00  0.00    -0.001 A 
ATOM     30  CE2 TYR A   3       3.883   7.740  19.215  0.00  0.00    +0.036 A 
ATOM     31  CZ  TYR A   3       2.942   8.740  19.014  0.00  0.00    +0.134 A 
ATOM     32  CE1 TYR A   3       2.545   9.082  17.728  0.00  0.00    +0.036 A 
ATOM     33  CD1 TYR A   3       3.100   8.412  16.636  0.00  0.00    -0.001 A 
BRANCH  31  34
ATOM     34  OH  TYR A   3       2.396   9.386  20.101  0.00  0.00    -0.506 OA
ATOM     35  HH  TYR A   3       1.416   9.246  20.109  0.00  0.00    +0.292 HD
ENDBRANCH  31  34
ENDBRANCH  27  28
ENDBRANCH   5  27
ENDBRANCH   1   5
BRANCH   3  36
ATOM     36  CA  GLY A   4       0.427   6.301  14.798  0.00  0.00    +0.176 C 
BRANCH  36  37
ATOM     37  C   GLY A   4      -0.419   5.044  14.877  0.00  0.00    +0.243 C 
ATOM     38  O   GLY A   4      -1.449   5.032  15.546  0.00  0.00    -0.273 OA
ATOM     39  N   ALA A   5       0.004   3.986  14.199  0.00  0.00    -0.297 N 
ATOM     40  H   ALA A   5       0.893   4.047  13.663  0.00  0.00    +0.150 HD
BRANCH  39  41
ATOM     41  CA  ALA A   5      -0.752   2.738  14.190  0.00  0.00    +0.149 C 
ATOM     42  CB  ALA A   5      -0.090   1.744  13.239  0.00  0.00    +0.031 C 
BRANCH  41  43
ATOM     43  C   ALA A   5      -0.917   2.109  15.575  0.00  0.00    +0.241 C 
ATOM     44  N   PHE A   6       0.019   2.381  16.475  0.00  0.00    -0.297 N 
ATOM     45  H   PHE A   6       0.808   3.011  16.225  0.00  0.00    +0.150 HD
ATOM     46  O   ALA A   5      -1.886   1.397  15.832  0.00  0.00    -0.273 OA
BRANCH  44  47
ATOM     47  CA  PHE A   6      -0.050   1.803  17.811  0.00  0.00    +0.153 C 
BRANCH  47  48
ATOM     48  C   PHE A   6      -0.847   2.634  18.815  0.00  0.00    +0.241 C 
ATOM     49  O   PHE A   6      -1.340   2.107  19.811  0.00  0.00    -0.273 OA
ATOM     50  N   LEU A   7      -0.990   3.924  18.544  0.00  0.00    -0.298 N 
ATOM     51  H   LEU A   7      -0.607   4.305  17.655  0.00  0.00    +0.150 HD
BRANCH  50  52
ATOM     52  CA  LEU A   7      -1.674   4.817  19.468  0.00  0.00    +0.137 C 
BRANCH  52  53
ATOM     53  C   LEU A   7      -3.031   5.355  18.975  0.00  0.00    +0.227 C 
ATOM     54  O   LEU A   7      -3.459   5.070  17.859  0.00  0.00    -0.286 OA
ENDBRANCH  52  53
BRANCH  52  55
ATOM     55  CB  LEU A   7      -0.708   5.965  19.829  0.00  0.00    +0.028 C 
BRANCH  55  56
ATOM     56  CG  LEU A   7       0.573   5.670  20.656  0.00  0.00    +0.002 C 
ATOM     57  CD2 LEU A   7       0.261   5.499  22.082  0.00  0.00    +0.000 C 
ATOM     58  CD1 LEU A   7       1.239   4.421  20.183  0.00  0.00    +0.000 C 
ENDBRANCH  55  56
ENDBRANCH  52  55
ENDBRANCH  50  52
ENDBRANCH  47  48
BRANCH  47  59
ATOM     59  CB  PHE A   6       1.366   1.598  18.354  0.00  0.00    +0.055 C 
BRANCH  59  60
ATOM     60  CG  PHE A   6       2.259   0.809  17.441  0.00  0.00    -0.020 A 
ATOM     61  CD2 PHE A   6       2.026  -0.538  17.214  0.00  0.00    -0.004 A 
ATOM     62  CE2 PHE A   6       2.864  -1.278  16.386  0.00  0.00    -0.000 A 
ATOM     63  CZ  PHE A   6       3.948  -0.669  15.776  0.00  0.00    -0.000 A 
ATOM     64  CE1 PHE A   6       4.191   0.682  15.993  0.00  0.00    -0.000 A 
ATOM     65  CD1 PHE A   6       3.348   1.413  16.823  0.00  0.00    -0.004 A 
ENDBRANCH  59  60
ENDBRANCH  47  59
ENDBRANCH  44  47
ENDBRANCH  41  43
ENDBRANCH  39  41
ENDBRANCH  36  37
ENDBRANCH   3  36
TORSDOF 26
REMARK  Name = ../refined-set-2016/3lcu/3lcu_pocket.pdb
REMARK  229 active torsions:
REMARK  status: ('A' for Active; 'I' for Inactive)
REMARK    1  A    between atoms: _1  and  _3
REMARK    2  A    between atoms: _3  and  _4
REMARK    3  A    between atoms: _3  and  _6
REMARK    4  A    between atoms: _9  and  _11
REMARK    5  A    between atoms: _11  and  _12
REMARK    6  A    between atoms: _15  and  _17
REMARK    7  A    between atoms: _17  and  _18
REMARK    8  A    between atoms: _17  and  _20
REMARK    9  A    between atoms: _20  and  _21
REMARK   10  A    between atoms: _24  and  _26
REMARK   11  A    between atoms: _26  and  _27
REMARK   12  A    between atoms: _26  and  _29
REMARK   13  A    between atoms: _29  and  _30
REMARK   14  A    between atoms: _30  and  _31
REMARK   15  A    between atoms: _31  and  _32
REMARK   16  A    between atoms: _41  and  _43
REMARK   17  A    between atoms: _43  and  _44
REMARK   18  A    between atoms: _43  and  _46
REMARK   19  A    between atoms: _46  and  _47
REMARK   20  A    between atoms: _50  and  _52
REMARK   21  A    between atoms: _52  and  _53
REMARK   22  A    between atoms: _55  and  _57
REMARK   23  A    between atoms: _57  and  _58
REMARK   24  A    between atoms: _57  and  _60
REMARK   25  A    between atoms: _60  and  _61
REMARK   26  A    between atoms: _64  and  _66
REMARK   27  A    between atoms: _66  and  _67
REMARK   28  A    between atoms: _66  and  _69
REMARK   29  A    between atoms: _69  and  _70
REMARK   30  A    between atoms: _70  and  _71
REMARK   31  A    between atoms: _74  and  _76
REMARK   32  A    between atoms: _76  and  _77
REMARK   33  A    between atoms: _76  and  _79
REMARK   34  A    between atoms: _79  and  _80
REMARK   35  A    between atoms: _83  and  _85
REMARK   36  A    between atoms: _85  and  _86
REMARK   37  A    between atoms: _85  and  _88
REMARK   38  A    between atoms: _88  and  _89
REMARK   39  A    between atoms: _94  and  _95
REMARK   40  A    between atoms: _97  and  _99
REMARK   41  A    between atoms: _99  and  _100
REMARK   42  A    between atoms: _102  and  _104
REMARK   43  A    between atoms: _104  and  _105
REMARK   44  A    between atoms: _108  and  _110
REMARK   45  A    between atoms: _110  and  _111
REMARK   46  A    between atoms: _110  and  _113
REMARK   47  A    between atoms: _113  and  _114
REMARK   48  A    between atoms: _120  and  _122
REMARK   49  A    between atoms: _122  and  _123
REMARK   50  A    between atoms: _122  and  _125
REMARK   51  A    between atoms: _125  and  _126
REMARK   52  A    between atoms: _129  and  _131
REMARK   53  A    between atoms: _131  and  _132
REMARK   54  A    between atoms: _131  and  _134
REMARK   55  A    between atoms: _134  and  _135
REMARK   56  A    between atoms: _135  and  _136
REMARK   57  A    between atoms: _138  and  _140
REMARK   58  A    between atoms: _140  and  _141
REMARK   59  A    between atoms: _140  and  _143
REMARK   60  A    between atoms: _143  and  _144
REMARK   61  A    between atoms: _149  and  _151
REMARK   62  A    between atoms: _151  and  _152
REMARK   63  A    between atoms: _151  and  _154
REMARK   64  A    between atoms: _154  and  _155
REMARK   65  A    between atoms: _158  and  _160
REMARK   66  A    between atoms: _160  and  _161
REMARK   67  A    between atoms: _160  and  _163
REMARK   68  A    between atoms: _163  and  _164
REMARK   69  A    between atoms: _166  and  _168
REMARK   70  A    between atoms: _168  and  _169
REMARK   71  A    between atoms: _168  and  _171
REMARK   72  A    between atoms: _171  and  _172
REMARK   73  A    between atoms: _175  and  _177
REMARK   74  A    between atoms: _177  and  _178
REMARK   75  A    between atoms: _177  and  _180
REMARK   76  A    between atoms: _180  and  _181
REMARK   77  A    between atoms: _181  and  _182
REMARK   78  A    between atoms: _182  and  _183
REMARK   79  A    between atoms: _192  and  _194
REMARK   80  A    between atoms: _194  and  _195
REMARK   81  A    between atoms: _194  and  _197
REMARK   82  A    between atoms: _197  and  _198
REMARK   83  A    between atoms: _198  and  _199
REMARK   84  A    between atoms: _202  and  _204
REMARK   85  A    between atoms: _204  and  _205
REMARK   86  A    between atoms: _204  and  _207
REMARK   87  A    between atoms: _207  and  _208
REMARK   88  A    between atoms: _208  and  _209
REMARK   89  A    between atoms: _209  and  _210
REMARK   90  A    between atoms: _219  and  _221
REMARK   91  A    between atoms: _221  and  _222
REMARK   92  A    between atoms: _221  and  _224
REMARK   93  A    between atoms: _224  and  _225
REMARK   94  A    between atoms: _228  and  _230
REMARK   95  A    between atoms: _230  and  _231
REMARK   96  A    between atoms: _230  and  _233
REMARK   97  A    between atoms: _233  and  _234
REMARK   98  A    between atoms: _240  and  _242
REMARK   99  A    between atoms: _242  and  _243
REMARK  100  A    between atoms: _242  and  _245
REMARK  101  A    between atoms: _245  and  _246
REMARK  102  A    between atoms: _251  and  _252
REMARK  103  A    between atoms: _254  and  _256
REMARK  104  A    between atoms: _256  and  _257
REMARK  105  A    between atoms: _256  and  _259
REMARK  106  A    between atoms: _259  and  _260
REMARK  107  A    between atoms: _263  and  _265
REMARK  108  A    between atoms: _265  and  _266
REMARK  109  A    between atoms: _265  and  _268
REMARK  110  A    between atoms: _268  and  _269
REMARK  111  A    between atoms: _272  and  _274
REMARK  112  A    between atoms: _274  and  _275
REMARK  113  A    between atoms: _278  and  _280
REMARK  114  A    between atoms: _280  and  _281
REMARK  115  A    between atoms: _280  and  _283
REMARK  116  A    between atoms: _285  and  _287
REMARK  117  A    between atoms: _287  and  _288
REMARK  118  A    between atoms: _290  and  _292
REMARK  119  A    between atoms: _292  and  _293
REMARK  120  A    between atoms: _292  and  _295
REMARK  121  A    between atoms: _295  and  _296
REMARK  122  A    between atoms: _299  and  _301
REMARK  123  A    between atoms: _301  and  _302
REMARK  124  A    between atoms: _301  and  _304
REMARK  125  A    between atoms: _304  and  _305
REMARK  126  A    between atoms: _311  and  _312
REMARK  127  A    between atoms: _317  and  _319
REMARK  128  A    between atoms: _319  and  _320
REMARK  129  A    between atoms: _319  and  _322
REMARK  130  A    between atoms: _322  and  _323
REMARK  131  A    between atoms: _325  and  _327
REMARK  132  A    between atoms: _327  and  _328
REMARK  133  A    between atoms: _327  and  _330
REMARK  134  A    between atoms: _330  and  _331
REMARK  135  A    between atoms: _334  and  _336
REMARK  136  A    between atoms: _336  and  _337
REMARK  137  A    between atoms: _336  and  _339
REMARK  138  A    between atoms: _339  and  _340
REMARK  139  A    between atoms: _343  and  _345
REMARK  140  A    between atoms: _345  and  _346
REMARK  141  A    between atoms: _345  and  _348
REMARK  142  A    between atoms: _348  and  _349
REMARK  143  A    between atoms: _352  and  _354
REMARK  144  A    between atoms: _354  and  _355
REMARK  145  A    between atoms: _354  and  _357
REMARK  146  A    between atoms: _357  and  _358
REMARK  147  A    between atoms: _361  and  _363
REMARK  148  A    between atoms: _363  and  _364
REMARK  149  A    between atoms: _363  and  _366
REMARK  150  A    between atoms: _369  and  _371
REMARK  151  A    between atoms: _371  and  _372
REMARK  152  A    between atoms: _375  and  _377
REMARK  153  A    between atoms: _377  and  _378
REMARK  154  A    between atoms: _377  and  _380
REMARK  155  A    between atoms: _380  and  _381
REMARK  156  A    between atoms: _384  and  _386
REMARK  157  A    between atoms: _386  and  _387
REMARK  158  A    between atoms: _386  and  _389
REMARK  159  A    between atoms: _389  and  _390
REMARK  160  A    between atoms: _393  and  _395
REMARK  161  A    between atoms: _395  and  _396
REMARK  162  A    between atoms: _395  and  _398
REMARK  163  A    between atoms: _398  and  _399
REMARK  164  A    between atoms: _402  and  _404
REMARK  165  A    between atoms: _404  and  _405
REMARK  166  A    between atoms: _404  and  _407
REMARK  167  A    between atoms: _407  and  _408
REMARK  168  A    between atoms: _408  and  _409
REMARK  169  A    between atoms: _412  and  _414
REMARK  170  A    between atoms: _414  and  _415
REMARK  171  A    between atoms: _414  and  _417
REMARK  172  A    between atoms: _417  and  _418
REMARK  173  A    between atoms: _421  and  _423
REMARK  174  A    between atoms: _423  and  _424
REMARK  175  A    between atoms: _423  and  _426
REMARK  176  A    between atoms: _426  and  _427
REMARK  177  A    between atoms: _430  and  _432
REMARK  178  A    between atoms: _432  and  _433
REMARK  179  A    between atoms: _432  and  _435
REMARK  180  A    between atoms: _435  and  _436
REMARK  181  A    between atoms: _439  and  _441
REMARK  182  A    between atoms: _441  and  _442
REMARK  183  A    between atoms: _441  and  _444
REMARK  184  A    between atoms: _444  and  _445
REMARK  185  A    between atoms: _448  and  _450
REMARK  186  A    between atoms: _450  and  _451
REMARK  187  A    between atoms: _450  and  _453
REMARK  188  A    between atoms: _453  and  _454
REMARK  189  A    between atoms: _454  and  _455
REMARK  190  A    between atoms: _455  and  _456
REMARK  191  A    between atoms: _456  and  _457
REMARK  192  A    between atoms: _461  and  _463
REMARK  193  A    between atoms: _463  and  _464
REMARK  194  A    between atoms: _463  and  _466
REMARK  195  A    between atoms: _466  and  _467
REMARK  196  A    between atoms: _470  and  _472
REMARK  197  A    between atoms: _472  and  _473
REMARK  198  A    between atoms: _472  and  _475
REMARK  199  A    between atoms: _475  and  _476
REMARK  200  A    between atoms: _479  and  _481
REMARK  201  A    between atoms: _481  and  _482
REMARK  202  A    between atoms: _481  and  _484
REMARK  203  A    between atoms: _486  and  _488
REMARK  204  A    between atoms: _488  and  _489
REMARK  205  A    between atoms: _488  and  _491
REMARK  206  A    between atoms: _491  and  _492
REMARK  207  A    between atoms: _495  and  _497
REMARK  208  A    between atoms: _497  and  _498
REMARK  209  A    between atoms: _497  and  _500
REMARK  210  A    between atoms: _500  and  _501
REMARK  211  A    between atoms: _501  and  _502
REMARK  212  A    between atoms: _507  and  _509
REMARK  213  A    between atoms: _509  and  _510
REMARK  214  A    between atoms: _509  and  _512
REMARK  215  A    between atoms: _512  and  _513
REMARK  216  A    between atoms: _513  and  _514
REMARK  217  A    between atoms: _519  and  _521
REMARK  218  A    between atoms: _521  and  _522
REMARK  219  A    between atoms: _521  and  _524
REMARK  220  A    between atoms: _524  and  _525
REMARK  221  A    between atoms: _527  and  _529
REMARK  222  A    between atoms: _529  and  _530
REMARK  223  A    between atoms: _529  and  _532
REMARK  224  A    between atoms: _532  and  _533
REMARK  225  A    between atoms: _536  and  _538
REMARK  226  A    between atoms: _538  and  _539
REMARK  227  A    between atoms: _538  and  _541
REMARK  228  A    between atoms: _541  and  _542
REMARK  229  A    between atoms: _542  and  _543
REMARK                            x       y       z     vdW  Elec       q    Type
REMARK                         _______ _______ _______ _____ _____    ______ ____
ROOT
ATOM      1  CA  UNL     1      -0.323   0.151  29.245  0.00  0.00    +0.000 C 
ENDROOT
BRANCH   1   2
ATOM      2  N   UNL     1      -1.061   0.820  30.316  0.00  0.00    +0.000 NA
ATOM      3  H   UNL     1      -1.024   0.445  31.285  0.00  0.00    +0.000 HD
ENDBRANCH   1   2
BRANCH   1   4
ATOM      4  C   UNL     1      -1.198  -0.274  28.066  0.00  0.00    +0.000 C 
ATOM      5  O   UNL     1      -0.708  -0.386  26.941  0.00  0.00    +0.000 OA
ENDBRANCH   1   4
BRANCH   1   6
ATOM      6  C   UNL     1       0.427  -1.077  29.788  0.00  0.00    +0.000 C 
BRANCH   6   7
ATOM      7  C   UNL     1       1.605  -0.742  30.703  0.00  0.00    +0.000 C 
BRANCH   7   8
ATOM      8 SE   UNL     1       2.640  -2.295  31.206  0.00  0.00    +0.000 Se
ATOM      9  C   UNL     1       3.735  -2.422  29.680  0.00  0.00    +0.000 C 
ENDBRANCH   7   8
ENDBRANCH   6   7
ENDBRANCH   1   6
TORSDOF 5
REMARK  Name = ../refined-set-2016/3lcu/3lcu_pocket.pdb
REMARK  229 active torsions:
REMARK  status: ('A' for Active; 'I' for Inactive)
REMARK    1  A    between atoms: _1  and  _3
REMARK    2  A    between atoms: _3  and  _4
REMARK    3  A    between atoms: _3  and  _6
REMARK    4  A    between atoms: _9  and  _11
REMARK    5  A    between atoms: _11  and  _12
REMARK    6  A    between atoms: _15  and  _17
REMARK    7  A    between atoms: _17  and  _18
REMARK    8  A    between atoms: _17  and  _20
REMARK    9  A    between atoms: _20  and  _21
REMARK   10  A    between atoms: _24  and  _26
REMARK   11  A    between atoms: _26  and  _27
REMARK   12  A    between atoms: _26  and  _29
REMARK   13  A    between atoms: _29  and  _30
REMARK   14  A    between atoms: _30  and  _31
REMARK   15  A    between atoms: _31  and  _32
REMARK   16  A    between atoms: _41  and  _43
REMARK   17  A    between atoms: _43  and  _44
REMARK   18  A    between atoms: _43  and  _46
REMARK   19  A    between atoms: _46  and  _47
REMARK   20  A    between atoms: _50  and  _52
REMARK   21  A    between atoms: _52  and  _53
REMARK   22  A    between atoms: _55  and  _57
REMARK   23  A    between atoms: _57  and  _58
REMARK   24  A    between atoms: _57  and  _60
REMARK   25  A    between atoms: _60  and  _61
REMARK   26  A    between atoms: _64  and  _66
REMARK   27  A    between atoms: _66  and  _67
REMARK   28  A    between atoms: _66  and  _69
REMARK   29  A    between atoms: _69  and  _70
REMARK   30  A    between atoms: _70  and  _71
REMARK   31  A    between atoms: _74  and  _76
REMARK   32  A    between atoms: _76  and  _77
REMARK   33  A    between atoms: _76  and  _79
REMARK   34  A    between atoms: _79  and  _80
REMARK   35  A    between atoms: _83  and  _85
REMARK   36  A    between atoms: _85  and  _86
REMARK   37  A    between atoms: _85  and  _88
REMARK   38  A    between atoms: _88  and  _89
REMARK   39  A    between atoms: _94  and  _95
REMARK   40  A    between atoms: _97  and  _99
REMARK   41  A    between atoms: _99  and  _100
REMARK   42  A    between atoms: _102  and  _104
REMARK   43  A    between atoms: _104  and  _105
REMARK   44  A    between atoms: _108  and  _110
REMARK   45  A    between atoms: _110  and  _111
REMARK   46  A    between atoms: _110  and  _113
REMARK   47  A    between atoms: _113  and  _114
REMARK   48  A    between atoms: _120  and  _122
REMARK   49  A    between atoms: _122  and  _123
REMARK   50  A    between atoms: _122  and  _125
REMARK   51  A    between atoms: _125  and  _126
REMARK   52  A    between atoms: _129  and  _131
REMARK   53  A    between atoms: _131  and  _132
REMARK   54  A    between atoms: _131  and  _134
REMARK   55  A    between atoms: _134  and  _135
REMARK   56  A    between atoms: _135  and  _136
REMARK   57  A    between atoms: _138  and  _140
REMARK   58  A    between atoms: _140  and  _141
REMARK   59  A    between atoms: _140  and  _143
REMARK   60  A    between atoms: _143  and  _144
REMARK   61  A    between atoms: _149  and  _151
REMARK   62  A    between atoms: _151  and  _152
REMARK   63  A    between atoms: _151  and  _154
REMARK   64  A    between atoms: _154  and  _155
REMARK   65  A    between atoms: _158  and  _160
REMARK   66  A    between atoms: _160  and  _161
REMARK   67  A    between atoms: _160  and  _163
REMARK   68  A    between atoms: _163  and  _164
REMARK   69  A    between atoms: _166  and  _168
REMARK   70  A    between atoms: _168  and  _169
REMARK   71  A    between atoms: _168  and  _171
REMARK   72  A    between atoms: _171  and  _172
REMARK   73  A    between atoms: _175  and  _177
REMARK   74  A    between atoms: _177  and  _178
REMARK   75  A    between atoms: _177  and  _180
REMARK   76  A    between atoms: _180  and  _181
REMARK   77  A    between atoms: _181  and  _182
REMARK   78  A    between atoms: _182  and  _183
REMARK   79  A    between atoms: _192  and  _194
REMARK   80  A    between atoms: _194  and  _195
REMARK   81  A    between atoms: _194  and  _197
REMARK   82  A    between atoms: _197  and  _198
REMARK   83  A    between atoms: _198  and  _199
REMARK   84  A    between atoms: _202  and  _204
REMARK   85  A    between atoms: _204  and  _205
REMARK   86  A    between atoms: _204  and  _207
REMARK   87  A    between atoms: _207  and  _208
REMARK   88  A    between atoms: _208  and  _209
REMARK   89  A    between atoms: _209  and  _210
REMARK   90  A    between atoms: _219  and  _221
REMARK   91  A    between atoms: _221  and  _222
REMARK   92  A    between atoms: _221  and  _224
REMARK   93  A    between atoms: _224  and  _225
REMARK   94  A    between atoms: _228  and  _230
REMARK   95  A    between atoms: _230  and  _231
REMARK   96  A    between atoms: _230  and  _233
REMARK   97  A    between atoms: _233  and  _234
REMARK   98  A    between atoms: _240  and  _242
REMARK   99  A    between atoms: _242  and  _243
REMARK  100  A    between atoms: _242  and  _245
REMARK  101  A    between atoms: _245  and  _246
REMARK  102  A    between atoms: _251  and  _252
REMARK  103  A    between atoms: _254  and  _256
REMARK  104  A    between atoms: _256  and  _257
REMARK  105  A    between atoms: _256  and  _259
REMARK  106  A    between atoms: _259  and  _260
REMARK  107  A    between atoms: _263  and  _265
REMARK  108  A    between atoms: _265  and  _266
REMARK  109  A    between atoms: _265  and  _268
REMARK  110  A    between atoms: _268  and  _269
REMARK  111  A    between atoms: _272  and  _274
REMARK  112  A    between atoms: _274  and  _275
REMARK  113  A    between atoms: _278  and  _280
REMARK  114  A    between atoms: _280  and  _281
REMARK  115  A    between atoms: _280  and  _283
REMARK  116  A    between atoms: _285  and  _287
REMARK  117  A    between atoms: _287  and  _288
REMARK  118  A    between atoms: _290  and  _292
REMARK  119  A    between atoms: _292  and  _293
REMARK  120  A    between atoms: _292  and  _295
REMARK  121  A    between atoms: _295  and  _296
REMARK  122  A    between atoms: _299  and  _301
REMARK  123  A    between atoms: _301  and  _302
REMARK  124  A    between atoms: _301  and  _304
REMARK  125  A    between atoms: _304  and  _305
REMARK  126  A    between atoms: _311  and  _312
REMARK  127  A    between atoms: _317  and  _319
REMARK  128  A    between atoms: _319  and  _320
REMARK  129  A    between atoms: _319  and  _322
REMARK  130  A    between atoms: _322  and  _323
REMARK  131  A    between atoms: _325  and  _327
REMARK  132  A    between atoms: _327  and  _328
REMARK  133  A    between atoms: _327  and  _330
REMARK  134  A    between atoms: _330  and  _331
REMARK  135  A    between atoms: _334  and  _336
REMARK  136  A    between atoms: _336  and  _337
REMARK  137  A    between atoms: _336  and  _339
REMARK  138  A    between atoms: _339  and  _340
REMARK  139  A    between atoms: _343  and  _345
REMARK  140  A    between atoms: _345  and  _346
REMARK  141  A    between atoms: _345  and  _348
REMARK  142  A    between atoms: _348  and  _349
REMARK  143  A    between atoms: _352  and  _354
REMARK  144  A    between atoms: _354  and  _355
REMARK  145  A    between atoms: _354  and  _357
REMARK  146  A    between atoms: _357  and  _358
REMARK  147  A    between atoms: _361  and  _363
REMARK  148  A    between atoms: _363  and  _364
REMARK  149  A    between atoms: _363  and  _366
REMARK  150  A    between atoms: _369  and  _371
REMARK  151  A    between atoms: _371  and  _372
REMARK  152  A    between atoms: _375  and  _377
REMARK  153  A    between atoms: _377  and  _378
REMARK  154  A    between atoms: _377  and  _380
REMARK  155  A    between atoms: _380  and  _381
REMARK  156  A    between atoms: _384  and  _386
REMARK  157  A    between atoms: _386  and  _387
REMARK  158  A    between atoms: _386  and  _389
REMARK  159  A    between atoms: _389  and  _390
REMARK  160  A    between atoms: _393  and  _395
REMARK  161  A    between atoms: _395  and  _396
REMARK  162  A    between atoms: _395  and  _398
REMARK  163  A    between atoms: _398  and  _399
REMARK  164  A    between atoms: _402  and  _404
REMARK  165  A    between atoms: _404  and  _405
REMARK  166  A    between atoms: _404  and  _407
REMARK  167  A    between atoms: _407  and  _408
REMARK  168  A    between atoms: _408  and  _409
REMARK  169  A    between atoms: _412  and  _414
REMARK  170  A    between atoms: _414  and  _415
REMARK  171  A    between atoms: _414  and  _417
REMARK  172  A    between atoms: _417  and  _418
REMARK  173  A    between atoms: _421  and  _423
REMARK  174  A    between atoms: _423  and  _424
REMARK  175  A    between atoms: _423  and  _426
REMARK  176  A    between atoms: _426  and  _427
REMARK  177  A    between atoms: _430  and  _432
REMARK  178  A    between atoms: _432  and  _433
REMARK  179  A    between atoms: _432  and  _435
REMARK  180  A    between atoms: _435  and  _436
REMARK  181  A    between atoms: _439  and  _441
REMARK  182  A    between atoms: _441  and  _442
REMARK  183  A    between atoms: _441  and  _444
REMARK  184  A    between atoms: _444  and  _445
REMARK  185  A    between atoms: _448  and  _450
REMARK  186  A    between atoms: _450  and  _451
REMARK  187  A    between atoms: _450  and  _453
REMARK  188  A    between atoms: _453  and  _454
REMARK  189  A    between atoms: _454  and  _455
REMARK  190  A    between atoms: _455  and  _456
REMARK  191  A    between atoms: _456  and  _457
REMARK  192  A    between atoms: _461  and  _463
REMARK  193  A    between atoms: _463  and  _464
REMARK  194  A    between atoms: _463  and  _466
REMARK  195  A    between atoms: _466  and  _467
REMARK  196  A    between atoms: _470  and  _472
REMARK  197  A    between atoms: _472  and  _473
REMARK  198  A    between atoms: _472  and  _475
REMARK  199  A    between atoms: _475  and  _476
REMARK  200  A    between atoms: _479  and  _481
REMARK  201  A    between atoms: _481  and  _482
REMARK  202  A    between atoms: _481  and  _484
REMARK  203  A    between atoms: _486  and  _488
REMARK  204  A    between atoms: _488  and  _489
REMARK  205  A    between atoms: _488  and  _491
REMARK  206  A    between atoms: _491  and  _492
REMARK  207  A    between atoms: _495  and  _497
REMARK  208  A    between atoms: _497  and  _498
REMARK  209  A    between atoms: _497  and  _500
REMARK  210  A    between atoms: _500  and  _501
REMARK  211  A    between atoms: _501  and  _502
REMARK  212  A    between atoms: _507  and  _509
REMARK  213  A    between atoms: _509  and  _510
REMARK  214  A    between atoms: _509  and  _512
REMARK  215  A    between atoms: _512  and  _513
REMARK  216  A    between atoms: _513  and  _514
REMARK  217  A    between atoms: _519  and  _521
REMARK  218  A    between atoms: _521  and  _522
REMARK  219  A    between atoms: _521  and  _524
REMARK  220  A    between atoms: _524  and  _525
REMARK  221  A    between atoms: _527  and  _529
REMARK  222  A    between atoms: _529  and  _530
REMARK  223  A    between atoms: _529  and  _532
REMARK  224  A    between atoms: _532  and  _533
REMARK  225  A    between atoms: _536  and  _538
REMARK  226  A    between atoms: _538  and  _539
REMARK  227  A    between atoms: _538  and  _541
REMARK  228  A    between atoms: _541  and  _542
REMARK  229  A    between atoms: _542  and  _543
REMARK                            x       y       z     vdW  Elec       q    Type
REMARK                         _______ _______ _______ _____ _____    ______ ____
ROOT
ATOM      1  CA  ARG A   5      -1.503  -4.162  25.162  0.00  0.00    +0.149 C 
ENDROOT
BRANCH   1   4
ATOM      2  C   THR A   4       0.917  -3.875  25.220  0.00  0.00    +0.243 C 
ATOM      3  O   THR A   4       1.074  -4.768  26.054  0.00  0.00    -0.273 OA
ATOM      4  N   ARG A   5      -0.268  -3.524  24.745  0.00  0.00    -0.297 N 
ATOM      5  H   ARG A   5      -0.316  -2.758  24.043  0.00  0.00    +0.150 HD
BRANCH   2   6
ATOM      6  CA  THR A   4       2.102  -3.091  24.657  0.00  0.00    +0.176 C 
BRANCH   6   8
ATOM      7  C   SER A   3       1.735  -3.659  22.321  0.00  0.00    +0.243 C 
ATOM      8  N   THR A   4       1.874  -2.729  23.261  0.00  0.00    -0.295 N 
ATOM      9  H   THR A   4       1.819  -1.725  22.997  0.00  0.00    +0.150 HD
ATOM     10  O   SER A   3       1.763  -4.862  22.570  0.00  0.00    -0.273 OA
BRANCH   7  11
ATOM     11  CA  SER A   3       1.513  -3.163  20.892  0.00  0.00    +0.178 C 
BRANCH  11  14
ATOM     12  C   ILE A   2      -0.760  -2.373  21.092  0.00  0.00    +0.241 C 
ATOM     13  O   ILE A   2      -1.148  -3.505  21.390  0.00  0.00    -0.273 OA
ATOM     14  N   SER A   3       0.517  -2.101  20.842  0.00  0.00    -0.295 N 
ATOM     15  H   SER A   3       0.805  -1.129  20.610  0.00  0.00    +0.150 HD
BRANCH  12  16
ATOM     16  CA  ILE A   2      -1.757  -1.220  21.022  0.00  0.00    +0.148 C 
BRANCH  16  19
ATOM     17  C   HIS A   1      -0.932   0.083  22.913  0.00  0.00    +0.239 C 
ATOM     18  O   HIS A   1      -0.814  -0.910  23.623  0.00  0.00    -0.274 OA
ATOM     19  N   ILE A   2      -1.357   0.028  21.656  0.00  0.00    -0.297 N 
ATOM     20  H   ILE A   2      -1.406   0.908  21.105  0.00  0.00    +0.150 HD
BRANCH  17  21
ATOM     21  CA  HIS A   1      -0.602   1.471  23.448  0.00  0.00    +0.151 C 
BRANCH  21  22
ATOM     22  N   HIS A   1      -1.528   1.707  24.546  0.00  0.00    -0.238 NA
ATOM     23  H   HIS A   1      -1.263   1.415  25.508  0.00  0.00    +0.142 HD
ENDBRANCH  21  22
BRANCH  21  24
ATOM     24  CB  HIS A   1       0.839   1.525  23.947  0.00  0.00    +0.074 C 
BRANCH  24  25
ATOM     25  CG  HIS A   1       1.862   1.486  22.853  0.00  0.00    +0.082 A 
ATOM     26  CD2 HIS A   1       2.767   2.410  22.449  0.00  0.00    +0.115 A 
ATOM     27  NE2 HIS A   1       3.525   1.831  21.460  0.00  0.00    -0.221 NA
ATOM     28  CE1 HIS A   1       3.096   0.599  21.257  0.00  0.00    +0.199 A 
ATOM     29  ND1 HIS A   1       2.089   0.367  22.081  0.00  0.00    -0.227 NA
ENDBRANCH  24  25
ENDBRANCH  21  24
ENDBRANCH  17  21
ENDBRANCH  16  19
BRANCH  16  30
ATOM     30  CB  ILE A   2      -2.172  -0.956  19.557  0.00  0.00    +0.027 C 
ATOM     31  CG2 ILE A   2      -2.254  -2.268  18.783  0.00  0.00    +0.002 C 
BRANCH  30  32
ATOM     32  CG1 ILE A   2      -3.520  -0.224  19.551  0.00  0.00    +0.002 C 
ATOM     33  CD1 ILE A   2      -3.979   0.256  18.178  0.00  0.00    +0.000 C 
ENDBRANCH  30  32
ENDBRANCH  16  30
ENDBRANCH  12  16
ENDBRANCH  11  14
BRANCH  11  34
ATOM     34  CB  SER A   3       2.838  -2.688  20.300  0.00  0.00    +0.166 C 
BRANCH  34  35
ATOM     35  OG  SER A   3       3.770  -3.757  20.255  0.00  0.00    -0.380 OA
ATOM     36  H   SER A   3       4.623  -3.434  19.869  0.00  0.00    +0.211 HD
ENDBRANCH  34  35
ENDBRANCH  11  34
ENDBRANCH   7  11
ENDBRANCH   6   8
BRANCH   6  37
ATOM     37  CB  THR A   4       2.316  -1.842  25.532  0.00  0.00    +0.137 C 
ATOM     38  CG2 THR A   4       2.717  -2.259  26.913  0.00  0.00    +0.034 C 
BRANCH  37  39
ATOM     39  OG1 THR A   4       3.356  -1.024  24.976  0.00  0.00    -0.382 OA
ATOM     40  HG1 THR A   4       4.198  -1.543  24.938  0.00  0.00    +0.210 HD
ENDBRANCH  37  39
ENDBRANCH   6  37
ENDBRANCH   2   6
ENDBRANCH   1   4
BRANCH   1  41
ATOM     41  C   ARG A   5      -1.504  -5.667  24.919  0.00  0.00    +0.241 C 
ATOM     42  O   ARG A   5      -2.105  -6.423  25.686  0.00  0.00    -0.273 OA
ATOM     43  N   GLU A   6      -0.822  -6.095  23.860  0.00  0.00    -0.297 N 
ATOM     44  H   GLU A   6      -0.312  -5.400  23.279  0.00  0.00    +0.150 HD
BRANCH  43  45
ATOM     45  CA  GLU A   6      -0.762  -7.509  23.482  0.00  0.00    +0.149 C 
BRANCH  45  46
ATOM     46  C   GLU A   6      -0.030  -8.421  24.458  0.00  0.00    +0.241 C 
ATOM     47  N   ARG A   7       0.859  -7.853  25.265  0.00  0.00    -0.297 N 
ATOM     48  H   ARG A   7       1.000  -6.824  25.220  0.00  0.00    +0.150 HD
ATOM     49  O   GLU A   6      -0.262  -9.627  24.469  0.00  0.00    -0.273 OA
BRANCH  47  50
ATOM     50  CA  ARG A   7       1.643  -8.639  26.213  0.00  0.00    +0.149 C 
BRANCH  50  51
ATOM     51  C   ARG A   7       1.020  -8.734  27.607  0.00  0.00    +0.241 C 
ATOM     52  O   ARG A   7       1.330  -9.653  28.372  0.00  0.00    -0.273 OA
ATOM     53  N   LEU A   8       0.143  -7.791  27.932  0.00  0.00    -0.298 N 
ATOM     54  H   LEU A   8      -0.100  -7.059  27.235  0.00  0.00    +0.150 HD
BRANCH  53  55
ATOM     55  CA  LEU A   8      -0.486  -7.762  29.247  0.00  0.00    +0.137 C 
BRANCH  55  56
ATOM     56  C   LEU A   8      -1.050  -9.093  29.744  0.00  0.00    +0.227 C 
ATOM     57  O   LEU A   8      -0.968  -9.392  30.932  0.00  0.00    -0.286 OA
ENDBRANCH  55  56
BRANCH  55  58
ATOM     58  CB  LEU A   8      -1.570  -6.681  29.283  0.00  0.00    +0.028 C 
BRANCH  58  59
ATOM     59  CG  LEU A   8      -1.013  -5.279  29.004  0.00  0.00    +0.002 C 
ATOM     60  CD2 LEU A   8       0.136  -4.992  29.955  0.00  0.00    +0.000 C 
ATOM     61  CD1 LEU A   8      -2.110  -4.236  29.167  0.00  0.00    +0.000 C 
ENDBRANCH  58  59
ENDBRANCH  55  58
ENDBRANCH  53  55
ENDBRANCH  50  51
BRANCH  50  62
ATOM     62  CB  ARG A   7       3.047  -8.034  26.323  0.00  0.00    +0.033 C 
BRANCH  62  63
ATOM     63  CG  ARG A   7       4.129  -8.960  26.875  0.00  0.00    +0.045 C 
BRANCH  63  64
ATOM     64  CD  ARG A   7       5.499  -8.532  26.314  0.00  0.00    +0.174 C 
BRANCH  64  65
ATOM     65  NE  ARG A   7       5.587  -7.103  26.493  0.00  0.00    -0.265 N 
ATOM     66  HE  ARG A   7       5.309  -6.733  27.424  0.00  0.00    +0.259 HD
ATOM     67  CZ  ARG A   7       5.985  -6.212  25.596  0.00  0.00    +0.342 C 
ATOM     68  NH2 ARG A   7       5.881  -4.938  25.914  0.00  0.00    -0.292 N 
ATOM     69 HH21 ARG A   7       5.498  -4.663  26.841  0.00  0.00    +0.255 HD
ATOM     70 HH22 ARG A   7       6.182  -4.207  25.238  0.00  0.00    +0.255 HD
ATOM     71  NH1 ARG A   7       6.391  -6.557  24.385  0.00  0.00    -0.292 N 
ATOM     72 HH11 ARG A   7       6.406  -7.559  24.107  0.00  0.00    +0.255 HD
ATOM     73 HH12 ARG A   7       6.695  -5.826  23.711  0.00  0.00    +0.255 HD
ENDBRANCH  64  65
ENDBRANCH  63  64
ENDBRANCH  62  63
ENDBRANCH  50  62
ENDBRANCH  47  50
ENDBRANCH  45  46
BRANCH  45  74
ATOM     74  CB  GLU A   6      -0.103  -7.658  22.110  0.00  0.00    +0.041 C 
BRANCH  74  75
ATOM     75  CG  GLU A   6      -0.387  -6.524  21.153  0.00  0.00    +0.116 C 
BRANCH  75  76
ATOM     76  CD  GLU A   6      -1.247  -6.936  19.982  0.00  0.00    +0.365 C 
ATOM     77  OE2 GLU A   6      -2.351  -7.472  20.215  0.00  0.00    -0.246 OA
ATOM     78  OE1 GLU A   6      -0.822  -6.711  18.829  0.00  0.00    -0.246 OA
ENDBRANCH  75  76
ENDBRANCH  74  75
ENDBRANCH  45  74
ENDBRANCH  43  45
ENDBRANCH   1  41
BRANCH   1  79
ATOM     79  CB  ARG A   5      -2.667  -3.530  24.408  0.00  0.00    +0.033 C 
BRANCH  79  80
ATOM     80  CG  ARG A   5      -4.036  -3.979  24.869  0.00  0.00    +0.045 C 
BRANCH  80  81
ATOM     81  CD  ARG A   5      -5.014  -2.850  24.633  0.00  0.00    +0.174 C 
BRANCH  81  82
ATOM     82  NE  ARG A   5      -5.589  -2.866  23.296  0.00  0.00    -0.265 N 
ATOM     83  HE  ARG A   5      -5.681  -3.785  22.818  0.00  0.00    +0.259 HD
ATOM     84  CZ  ARG A   5      -6.004  -1.784  22.645  0.00  0.00    +0.342 C 
ATOM     85  NH2 ARG A   5      -5.894  -0.582  23.196  0.00  0.00    -0.292 N 
ATOM     86 HH21 ARG A   5      -5.480  -0.481  24.145  0.00  0.00    +0.255 HD
ATOM     87 HH22 ARG A   5      -6.221   0.259  22.679  0.00  0.00    +0.255 HD
ATOM     88  NH1 ARG A   5      -6.571  -1.914  21.453  0.00  0.00    -0.292 N 
ATOM     89 HH11 ARG A   5      -6.689  -2.858  21.033  0.00  0.00    +0.255 HD
ATOM     90 HH12 ARG A   5      -6.898  -1.072  20.938  0.00  0.00    +0.255 HD
ENDBRANCH  81  82
ENDBRANCH  80  81
ENDBRANCH  79  80
ENDBRANCH   1  79
TORSDOF 37
REMARK  Name = ../refined-set-2016/3lcu/3lcu_pocket.pdb
REMARK  229 active torsions:
REMARK  status: ('A' for Active; 'I' for Inactive)
REMARK    1  A    between atoms: _1  and  _3
REMARK    2  A    between atoms: _3  and  _4
REMARK    3  A    between atoms: _3  and  _6
REMARK    4  A    between atoms: _9  and  _11
REMARK    5  A    between atoms: _11  and  _12
REMARK    6  A    between atoms: _15  and  _17
REMARK    7  A    between atoms: _17  and  _18
REMARK    8  A    between atoms: _17  and  _20
REMARK    9  A    between atoms: _20  and  _21
REMARK   10  A    between atoms: _24  and  _26
REMARK   11  A    between atoms: _26  and  _27
REMARK   12  A    between atoms: _26  and  _29
REMARK   13  A    between atoms: _29  and  _30
REMARK   14  A    between atoms: _30  and  _31
REMARK   15  A    between atoms: _31  and  _32
REMARK   16  A    between atoms: _41  and  _43
REMARK   17  A    between atoms: _43  and  _44
REMARK   18  A    between atoms: _43  and  _46
REMARK   19  A    between atoms: _46  and  _47
REMARK   20  A    between atoms: _50  and  _52
REMARK   21  A    between atoms: _52  and  _53
REMARK   22  A    between atoms: _55  and  _57
REMARK   23  A    between atoms: _57  and  _58
REMARK   24  A    between atoms: _57  and  _60
REMARK   25  A    between atoms: _60  and  _61
REMARK   26  A    between atoms: _64  and  _66
REMARK   27  A    between atoms: _66  and  _67
REMARK   28  A    between atoms: _66  and  _69
REMARK   29  A    between atoms: _69  and  _70
REMARK   30  A    between atoms: _70  and  _71
REMARK   31  A    between atoms: _74  and  _76
REMARK   32  A    between atoms: _76  and  _77
REMARK   33  A    between atoms: _76  and  _79
REMARK   34  A    between atoms: _79  and  _80
REMARK   35  A    between atoms: _83  and  _85
REMARK   36  A    between atoms: _85  and  _86
REMARK   37  A    between atoms: _85  and  _88
REMARK   38  A    between atoms: _88  and  _89
REMARK   39  A    between atoms: _94  and  _95
REMARK   40  A    between atoms: _97  and  _99
REMARK   41  A    between atoms: _99  and  _100
REMARK   42  A    between atoms: _102  and  _104
REMARK   43  A    between atoms: _104  and  _105
REMARK   44  A    between atoms: _108  and  _110
REMARK   45  A    between atoms: _110  and  _111
REMARK   46  A    between atoms: _110  and  _113
REMARK   47  A    between atoms: _113  and  _114
REMARK   48  A    between atoms: _120  and  _122
REMARK   49  A    between atoms: _122  and  _123
REMARK   50  A    between atoms: _122  and  _125
REMARK   51  A    between atoms: _125  and  _126
REMARK   52  A    between atoms: _129  and  _131
REMARK   53  A    between atoms: _131  and  _132
REMARK   54  A    between atoms: _131  and  _134
REMARK   55  A    between atoms: _134  and  _135
REMARK   56  A    between atoms: _135  and  _136
REMARK   57  A    between atoms: _138  and  _140
REMARK   58  A    between atoms: _140  and  _141
REMARK   59  A    between atoms: _140  and  _143
REMARK   60  A    between atoms: _143  and  _144
REMARK   61  A    between atoms: _149  and  _151
REMARK   62  A    between atoms: _151  and  _152
REMARK   63  A    between atoms: _151  and  _154
REMARK   64  A    between atoms: _154  and  _155
REMARK   65  A    between atoms: _158  and  _160
REMARK   66  A    between atoms: _160  and  _161
REMARK   67  A    between atoms: _160  and  _163
REMARK   68  A    between atoms: _163  and  _164
REMARK   69  A    between atoms: _166  and  _168
REMARK   70  A    between atoms: _168  and  _169
REMARK   71  A    between atoms: _168  and  _171
REMARK   72  A    between atoms: _171  and  _172
REMARK   73  A    between atoms: _175  and  _177
REMARK   74  A    between atoms: _177  and  _178
REMARK   75  A    between atoms: _177  and  _180
REMARK   76  A    between atoms: _180  and  _181
REMARK   77  A    between atoms: _181  and  _182
REMARK   78  A    between atoms: _182  and  _183
REMARK   79  A    between atoms: _192  and  _194
REMARK   80  A    between atoms: _194  and  _195
REMARK   81  A    between atoms: _194  and  _197
REMARK   82  A    between atoms: _197  and  _198
REMARK   83  A    between atoms: _198  and  _199
REMARK   84  A    between atoms: _202  and  _204
REMARK   85  A    between atoms: _204  and  _205
REMARK   86  A    between atoms: _204  and  _207
REMARK   87  A    between atoms: _207  and  _208
REMARK   88  A    between atoms: _208  and  _209
REMARK   89  A    between atoms: _209  and  _210
REMARK   90  A    between atoms: _219  and  _221
REMARK   91  A    between atoms: _221  and  _222
REMARK   92  A    between atoms: _221  and  _224
REMARK   93  A    between atoms: _224  and  _225
REMARK   94  A    between atoms: _228  and  _230
REMARK   95  A    between atoms: _230  and  _231
REMARK   96  A    between atoms: _230  and  _233
REMARK   97  A    between atoms: _233  and  _234
REMARK   98  A    between atoms: _240  and  _242
REMARK   99  A    between atoms: _242  and  _243
REMARK  100  A    between atoms: _242  and  _245
REMARK  101  A    between atoms: _245  and  _246
REMARK  102  A    between atoms: _251  and  _252
REMARK  103  A    between atoms: _254  and  _256
REMARK  104  A    between atoms: _256  and  _257
REMARK  105  A    between atoms: _256  and  _259
REMARK  106  A    between atoms: _259  and  _260
REMARK  107  A    between atoms: _263  and  _265
REMARK  108  A    between atoms: _265  and  _266
REMARK  109  A    between atoms: _265  and  _268
REMARK  110  A    between atoms: _268  and  _269
REMARK  111  A    between atoms: _272  and  _274
REMARK  112  A    between atoms: _274  and  _275
REMARK  113  A    between atoms: _278  and  _280
REMARK  114  A    between atoms: _280  and  _281
REMARK  115  A    between atoms: _280  and  _283
REMARK  116  A    between atoms: _285  and  _287
REMARK  117  A    between atoms: _287  and  _288
REMARK  118  A    between atoms: _290  and  _292
REMARK  119  A    between atoms: _292  and  _293
REMARK  120  A    between atoms: _292  and  _295
REMARK  121  A    between atoms: _295  and  _296
REMARK  122  A    between atoms: _299  and  _301
REMARK  123  A    between atoms: _301  and  _302
REMARK  124  A    between atoms: _301  and  _304
REMARK  125  A    between atoms: _304  and  _305
REMARK  126  A    between atoms: _311  and  _312
REMARK  127  A    between atoms: _317  and  _319
REMARK  128  A    between atoms: _319  and  _320
REMARK  129  A    between atoms: _319  and  _322
REMARK  130  A    between atoms: _322  and  _323
REMARK  131  A    between atoms: _325  and  _327
REMARK  132  A    between atoms: _327  and  _328
REMARK  133  A    between atoms: _327  and  _330
REMARK  134  A    between atoms: _330  and  _331
REMARK  135  A    between atoms: _334  and  _336
REMARK  136  A    between atoms: _336  and  _337
REMARK  137  A    between atoms: _336  and  _339
REMARK  138  A    between atoms: _339  and  _340
REMARK  139  A    between atoms: _343  and  _345
REMARK  140  A    between atoms: _345  and  _346
REMARK  141  A    between atoms: _345  and  _348
REMARK  142  A    between atoms: _348  and  _349
REMARK  143  A    between atoms: _352  and  _354
REMARK  144  A    between atoms: _354  and  _355
REMARK  145  A    between atoms: _354  and  _357
REMARK  146  A    between atoms: _357  and  _358
REMARK  147  A    between atoms: _361  and  _363
REMARK  148  A    between atoms: _363  and  _364
REMARK  149  A    between atoms: _363  and  _366
REMARK  150  A    between atoms: _369  and  _371
REMARK  151  A    between atoms: _371  and  _372
REMARK  152  A    between atoms: _375  and  _377
REMARK  153  A    between atoms: _377  and  _378
REMARK  154  A    between atoms: _377  and  _380
REMARK  155  A    between atoms: _380  and  _381
REMARK  156  A    between atoms: _384  and  _386
REMARK  157  A    between atoms: _386  and  _387
REMARK  158  A    between atoms: _386  and  _389
REMARK  159  A    between atoms: _389  and  _390
REMARK  160  A    between atoms: _393  and  _395
REMARK  161  A    between atoms: _395  and  _396
REMARK  162  A    between atoms: _395  and  _398
REMARK  163  A    between atoms: _398  and  _399
REMARK  164  A    between atoms: _402  and  _404
REMARK  165  A    between atoms: _404  and  _405
REMARK  166  A    between atoms: _404  and  _407
REMARK  167  A    between atoms: _407  and  _408
REMARK  168  A    between atoms: _408  and  _409
REMARK  169  A    between atoms: _412  and  _414
REMARK  170  A    between atoms: _414  and  _415
REMARK  171  A    between atoms: _414  and  _417
REMARK  172  A    between atoms: _417  and  _418
REMARK  173  A    between atoms: _421  and  _423
REMARK  174  A    between atoms: _423  and  _424
REMARK  175  A    between atoms: _423  and  _426
REMARK  176  A    between atoms: _426  and  _427
REMARK  177  A    between atoms: _430  and  _432
REMARK  178  A    between atoms: _432  and  _433
REMARK  179  A    between atoms: _432  and  _435
REMARK  180  A    between atoms: _435  and  _436
REMARK  181  A    between atoms: _439  and  _441
REMARK  182  A    between atoms: _441  and  _442
REMARK  183  A    between atoms: _441  and  _444
REMARK  184  A    between atoms: _444  and  _445
REMARK  185  A    between atoms: _448  and  _450
REMARK  186  A    between atoms: _450  and  _451
REMARK  187  A    between atoms: _450  and  _453
REMARK  188  A    between atoms: _453  and  _454
REMARK  189  A    between atoms: _454  and  _455
REMARK  190  A    between atoms: _455  and  _456
REMARK  191  A    between atoms: _456  and  _457
REMARK  192  A    between atoms: _461  and  _463
REMARK  193  A    between atoms: _463  and  _464
REMARK  194  A    between atoms: _463  and  _466
REMARK  195  A    between atoms: _466  and  _467
REMARK  196  A    between atoms: _470  and  _472
REMARK  197  A    between atoms: _472  and  _473
REMARK  198  A    between atoms: _472  and  _475
REMARK  199  A    between atoms: _475  and  _476
REMARK  200  A    between atoms: _479  and  _481
REMARK  201  A    between atoms: _481  and  _482
REMARK  202  A    between atoms: _481  and  _484
REMARK  203  A    between atoms: _486  and  _488
REMARK  204  A    between atoms: _488  and  _489
REMARK  205  A    between atoms: _488  and  _491
REMARK  206  A    between atoms: _491  and  _492
REMARK  207  A    between atoms: _495  and  _497
REMARK  208  A    between atoms: _497  and  _498
REMARK  209  A    between atoms: _497  and  _500
REMARK  210  A    between atoms: _500  and  _501
REMARK  211  A    between atoms: _501  and  _502
REMARK  212  A    between atoms: _507  and  _509
REMARK  213  A    between atoms: _509  and  _510
REMARK  214  A    between atoms: _509  and  _512
REMARK  215  A    between atoms: _512  and  _513
REMARK  216  A    between atoms: _513  and  _514
REMARK  217  A    between atoms: _519  and  _521
REMARK  218  A    between atoms: _521  and  _522
REMARK  219  A    between atoms: _521  and  _524
REMARK  220  A    between atoms: _524  and  _525
REMARK  221  A    between atoms: _527  and  _529
REMARK  222  A    between atoms: _529  and  _530
REMARK  223  A    between atoms: _529  and  _532
REMARK  224  A    between atoms: _532  and  _533
REMARK  225  A    between atoms: _536  and  _538
REMARK  226  A    between atoms: _538  and  _539
REMARK  227  A    between atoms: _538  and  _541
REMARK  228  A    between atoms: _541  and  _542
REMARK  229  A    between atoms: _542  and  _543
REMARK                            x       y       z     vdW  Elec       q    Type
REMARK                         _______ _______ _______ _____ _____    ______ ____
ROOT
ATOM      1  C   PHE A   1       8.156 -12.672  30.984  0.00  0.00    +0.239 C 
ATOM      2  N   TYR A   2       7.966 -11.914  32.060  0.00  0.00    -0.298 N 
ATOM      3  H   TYR A   2       7.002 -11.673  32.366  0.00  0.00    +0.150 HD
ATOM      4  O   PHE A   1       9.274 -12.985  30.589  0.00  0.00    -0.274 OA
ENDROOT
BRANCH   1   5
ATOM      5  CA  PHE A   1       6.914 -13.133  30.234  0.00  0.00    +0.149 C 
BRANCH   5   6
ATOM      6  N   PHE A   1       5.935 -13.775  31.102  0.00  0.00    -0.238 NA
ATOM      7  H   PHE A   1       4.973 -13.383  31.148  0.00  0.00    +0.142 HD
ENDBRANCH   5   6
BRANCH   5   8
ATOM      8  CB  PHE A   1       6.278 -11.930  29.535  0.00  0.00    +0.053 C 
BRANCH   8   9
ATOM      9  CG  PHE A   1       7.146 -11.309  28.482  0.00  0.00    -0.020 A 
ATOM     10  CD2 PHE A   1       7.844 -10.139  28.744  0.00  0.00    -0.004 A 
ATOM     11  CE2 PHE A   1       8.634  -9.543  27.760  0.00  0.00    -0.000 A 
ATOM     12  CZ  PHE A   1       8.728 -10.125  26.497  0.00  0.00    -0.000 A 
ATOM     13  CE1 PHE A   1       8.039 -11.293  26.225  0.00  0.00    -0.000 A 
ATOM     14  CD1 PHE A   1       7.252 -11.883  27.216  0.00  0.00    -0.004 A 
ENDBRANCH   8   9
ENDBRANCH   5   8
ENDBRANCH   1   5
BRANCH   2  15
ATOM     15  CA  TYR A   2       9.114 -11.423  32.808  0.00  0.00    +0.141 C 
BRANCH  15  16
ATOM     16  C   TYR A   2       9.679 -12.410  33.812  0.00  0.00    +0.227 C 
ATOM     17  O   TYR A   2      10.866 -12.359  34.124  0.00  0.00    -0.286 OA
ENDBRANCH  15  16
BRANCH  15  18
ATOM     18  CB  TYR A   2       8.779 -10.080  33.467  0.00  0.00    +0.054 C 
BRANCH  18  19
ATOM     19  CG  TYR A   2       8.814  -8.950  32.457  0.00  0.00    -0.020 A 
ATOM     20  CD2 TYR A   2       7.658  -8.258  32.100  0.00  0.00    -0.001 A 
ATOM     21  CE2 TYR A   2       7.689  -7.277  31.106  0.00  0.00    +0.036 A 
ATOM     22  CZ  TYR A   2       8.888  -6.988  30.470  0.00  0.00    +0.134 A 
ATOM     23  CE1 TYR A   2      10.040  -7.660  30.818  0.00  0.00    +0.036 A 
ATOM     24  CD1 TYR A   2       9.997  -8.630  31.804  0.00  0.00    -0.001 A 
BRANCH  22  25
ATOM     25  OH  TYR A   2       8.952  -6.041  29.478  0.00  0.00    -0.506 OA
ATOM     26  HH  TYR A   2       8.666  -5.165  29.840  0.00  0.00    +0.292 HD
ENDBRANCH  22  25
ENDBRANCH  18  19
ENDBRANCH  15  18
ENDBRANCH   2  15
TORSDOF 9
REMARK  Name = ../refined-set-2016/3lcu/3lcu_pocket.pdb
REMARK  229 active torsions:
REMARK  status: ('A' for Active; 'I' for Inactive)
REMARK    1  A    between atoms: _1  and  _3
REMARK    2  A    between atoms: _3  and  _4
REMARK    3  A    between atoms: _3  and  _6
REMARK    4  A    between atoms: _9  and  _11
REMARK    5  A    between atoms: _11  and  _12
REMARK    6  A    between atoms: _15  and  _17
REMARK    7  A    between atoms: _17  and  _18
REMARK    8  A    between atoms: _17  and  _20
REMARK    9  A    between atoms: _20  and  _21
REMARK   10  A    between atoms: _24  and  _26
REMARK   11  A    between atoms: _26  and  _27
REMARK   12  A    between atoms: _26  and  _29
REMARK   13  A    between atoms: _29  and  _30
REMARK   14  A    between atoms: _30  and  _31
REMARK   15  A    between atoms: _31  and  _32
REMARK   16  A    between atoms: _41  and  _43
REMARK   17  A    between atoms: _43  and  _44
REMARK   18  A    between atoms: _43  and  _46
REMARK   19  A    between atoms: _46  and  _47
REMARK   20  A    between atoms: _50  and  _52
REMARK   21  A    between atoms: _52  and  _53
REMARK   22  A    between atoms: _55  and  _57
REMARK   23  A    between atoms: _57  and  _58
REMARK   24  A    between atoms: _57  and  _60
REMARK   25  A    between atoms: _60  and  _61
REMARK   26  A    between atoms: _64  and  _66
REMARK   27  A    between atoms: _66  and  _67
REMARK   28  A    between atoms: _66  and  _69
REMARK   29  A    between atoms: _69  and  _70
REMARK   30  A    between atoms: _70  and  _71
REMARK   31  A    between atoms: _74  and  _76
REMARK   32  A    between atoms: _76  and  _77
REMARK   33  A    between atoms: _76  and  _79
REMARK   34  A    between atoms: _79  and  _80
REMARK   35  A    between atoms: _83  and  _85
REMARK   36  A    between atoms: _85  and  _86
REMARK   37  A    between atoms: _85  and  _88
REMARK   38  A    between atoms: _88  and  _89
REMARK   39  A    between atoms: _94  and  _95
REMARK   40  A    between atoms: _97  and  _99
REMARK   41  A    between atoms: _99  and  _100
REMARK   42  A    between atoms: _102  and  _104
REMARK   43  A    between atoms: _104  and  _105
REMARK   44  A    between atoms: _108  and  _110
REMARK   45  A    between atoms: _110  and  _111
REMARK   46  A    between atoms: _110  and  _113
REMARK   47  A    between atoms: _113  and  _114
REMARK   48  A    between atoms: _120  and  _122
REMARK   49  A    between atoms: _122  and  _123
REMARK   50  A    between atoms: _122  and  _125
REMARK   51  A    between atoms: _125  and  _126
REMARK   52  A    between atoms: _129  and  _131
REMARK   53  A    between atoms: _131  and  _132
REMARK   54  A    between atoms: _131  and  _134
REMARK   55  A    between atoms: _134  and  _135
REMARK   56  A    between atoms: _135  and  _136
REMARK   57  A    between atoms: _138  and  _140
REMARK   58  A    between atoms: _140  and  _141
REMARK   59  A    between atoms: _140  and  _143
REMARK   60  A    between atoms: _143  and  _144
REMARK   61  A    between atoms: _149  and  _151
REMARK   62  A    between atoms: _151  and  _152
REMARK   63  A    between atoms: _151  and  _154
REMARK   64  A    between atoms: _154  and  _155
REMARK   65  A    between atoms: _158  and  _160
REMARK   66  A    between atoms: _160  and  _161
REMARK   67  A    between atoms: _160  and  _163
REMARK   68  A    between atoms: _163  and  _164
REMARK   69  A    between atoms: _166  and  _168
REMARK   70  A    between atoms: _168  and  _169
REMARK   71  A    between atoms: _168  and  _171
REMARK   72  A    between atoms: _171  and  _172
REMARK   73  A    between atoms: _175  and  _177
REMARK   74  A    between atoms: _177  and  _178
REMARK   75  A    between atoms: _177  and  _180
REMARK   76  A    between atoms: _180  and  _181
REMARK   77  A    between atoms: _181  and  _182
REMARK   78  A    between atoms: _182  and  _183
REMARK   79  A    between atoms: _192  and  _194
REMARK   80  A    between atoms: _194  and  _195
REMARK   81  A    between atoms: _194  and  _197
REMARK   82  A    between atoms: _197  and  _198
REMARK   83  A    between atoms: _198  and  _199
REMARK   84  A    between atoms: _202  and  _204
REMARK   85  A    between atoms: _204  and  _205
REMARK   86  A    between atoms: _204  and  _207
REMARK   87  A    between atoms: _207  and  _208
REMARK   88  A    between atoms: _208  and  _209
REMARK   89  A    between atoms: _209  and  _210
REMARK   90  A    between atoms: _219  and  _221
REMARK   91  A    between atoms: _221  and  _222
REMARK   92  A    between atoms: _221  and  _224
REMARK   93  A    between atoms: _224  and  _225
REMARK   94  A    between atoms: _228  and  _230
REMARK   95  A    between atoms: _230  and  _231
REMARK   96  A    between atoms: _230  and  _233
REMARK   97  A    between atoms: _233  and  _234
REMARK   98  A    between atoms: _240  and  _242
REMARK   99  A    between atoms: _242  and  _243
REMARK  100  A    between atoms: _242  and  _245
REMARK  101  A    between atoms: _245  and  _246
REMARK  102  A    between atoms: _251  and  _252
REMARK  103  A    between atoms: _254  and  _256
REMARK  104  A    between atoms: _256  and  _257
REMARK  105  A    between atoms: _256  and  _259
REMARK  106  A    between atoms: _259  and  _260
REMARK  107  A    between atoms: _263  and  _265
REMARK  108  A    between atoms: _265  and  _266
REMARK  109  A    between atoms: _265  and  _268
REMARK  110  A    between atoms: _268  and  _269
REMARK  111  A    between atoms: _272  and  _274
REMARK  112  A    between atoms: _274  and  _275
REMARK  113  A    between atoms: _278  and  _280
REMARK  114  A    between atoms: _280  and  _281
REMARK  115  A    between atoms: _280  and  _283
REMARK  116  A    between atoms: _285  and  _287
REMARK  117  A    between atoms: _287  and  _288
REMARK  118  A    between atoms: _290  and  _292
REMARK  119  A    between atoms: _292  and  _293
REMARK  120  A    between atoms: _292  and  _295
REMARK  121  A    between atoms: _295  and  _296
REMARK  122  A    between atoms: _299  and  _301
REMARK  123  A    between atoms: _301  and  _302
REMARK  124  A    between atoms: _301  and  _304
REMARK  125  A    between atoms: _304  and  _305
REMARK  126  A    between atoms: _311  and  _312
REMARK  127  A    between atoms: _317  and  _319
REMARK  128  A    between atoms: _319  and  _320
REMARK  129  A    between atoms: _319  and  _322
REMARK  130  A    between atoms: _322  and  _323
REMARK  131  A    between atoms: _325  and  _327
REMARK  132  A    between atoms: _327  and  _328
REMARK  133  A    between atoms: _327  and  _330
REMARK  134  A    between atoms: _330  and  _331
REMARK  135  A    between atoms: _334  and  _336
REMARK  136  A    between atoms: _336  and  _337
REMARK  137  A    between atoms: _336  and  _339
REMARK  138  A    between atoms: _339  and  _340
REMARK  139  A    between atoms: _343  and  _345
REMARK  140  A    between atoms: _345  and  _346
REMARK  141  A    between atoms: _345  and  _348
REMARK  142  A    between atoms: _348  and  _349
REMARK  143  A    between atoms: _352  and  _354
REMARK  144  A    between atoms: _354  and  _355
REMARK  145  A    between atoms: _354  and  _357
REMARK  146  A    between atoms: _357  and  _358
REMARK  147  A    between atoms: _361  and  _363
REMARK  148  A    between atoms: _363  and  _364
REMARK  149  A    between atoms: _363  and  _366
REMARK  150  A    between atoms: _369  and  _371
REMARK  151  A    between atoms: _371  and  _372
REMARK  152  A    between atoms: _375  and  _377
REMARK  153  A    between atoms: _377  and  _378
REMARK  154  A    between atoms: _377  and  _380
REMARK  155  A    between atoms: _380  and  _381
REMARK  156  A    between atoms: _384  and  _386
REMARK  157  A    between atoms: _386  and  _387
REMARK  158  A    between atoms: _386  and  _389
REMARK  159  A    between atoms: _389  and  _390
REMARK  160  A    between atoms: _393  and  _395
REMARK  161  A    between atoms: _395  and  _396
REMARK  162  A    between atoms: _395  and  _398
REMARK  163  A    between atoms: _398  and  _399
REMARK  164  A    between atoms: _402  and  _404
REMARK  165  A    between atoms: _404  and  _405
REMARK  166  A    between atoms: _404  and  _407
REMARK  167  A    between atoms: _407  and  _408
REMARK  168  A    between atoms: _408  and  _409
REMARK  169  A    between atoms: _412  and  _414
REMARK  170  A    between atoms: _414  and  _415
REMARK  171  A    between atoms: _414  and  _417
REMARK  172  A    between atoms: _417  and  _418
REMARK  173  A    between atoms: _421  and  _423
REMARK  174  A    between atoms: _423  and  _424
REMARK  175  A    between atoms: _423  and  _426
REMARK  176  A    between atoms: _426  and  _427
REMARK  177  A    between atoms: _430  and  _432
REMARK  178  A    between atoms: _432  and  _433
REMARK  179  A    between atoms: _432  and  _435
REMARK  180  A    between atoms: _435  and  _436
REMARK  181  A    between atoms: _439  and  _441
REMARK  182  A    between atoms: _441  and  _442
REMARK  183  A    between atoms: _441  and  _444
REMARK  184  A    between atoms: _444  and  _445
REMARK  185  A    between atoms: _448  and  _450
REMARK  186  A    between atoms: _450  and  _451
REMARK  187  A    between atoms: _450  and  _453
REMARK  188  A    between atoms: _453  and  _454
REMARK  189  A    between atoms: _454  and  _455
REMARK  190  A    between atoms: _455  and  _456
REMARK  191  A    between atoms: _456  and  _457
REMARK  192  A    between atoms: _461  and  _463
REMARK  193  A    between atoms: _463  and  _464
REMARK  194  A    between atoms: _463  and  _466
REMARK  195  A    between atoms: _466  and  _467
REMARK  196  A    between atoms: _470  and  _472
REMARK  197  A    between atoms: _472  and  _473
REMARK  198  A    between atoms: _472  and  _475
REMARK  199  A    between atoms: _475  and  _476
REMARK  200  A    between atoms: _479  and  _481
REMARK  201  A    between atoms: _481  and  _482
REMARK  202  A    between atoms: _481  and  _484
REMARK  203  A    between atoms: _486  and  _488
REMARK  204  A    between atoms: _488  and  _489
REMARK  205  A    between atoms: _488  and  _491
REMARK  206  A    between atoms: _491  and  _492
REMARK  207  A    between atoms: _495  and  _497
REMARK  208  A    between atoms: _497  and  _498
REMARK  209  A    between atoms: _497  and  _500
REMARK  210  A    between atoms: _500  and  _501
REMARK  211  A    between atoms: _501  and  _502
REMARK  212  A    between atoms: _507  and  _509
REMARK  213  A    between atoms: _509  and  _510
REMARK  214  A    between atoms: _509  and  _512
REMARK  215  A    between atoms: _512  and  _513
REMARK  216  A    between atoms: _513  and  _514
REMARK  217  A    between atoms: _519  and  _521
REMARK  218  A    between atoms: _521  and  _522
REMARK  219  A    between atoms: _521  and  _524
REMARK  220  A    between atoms: _524  and  _525
REMARK  221  A    between atoms: _527  and  _529
REMARK  222  A    between atoms: _529  and  _530
REMARK  223  A    between atoms: _529  and  _532
REMARK  224  A    between atoms: _532  and  _533
REMARK  225  A    between atoms: _536  and  _538
REMARK  226  A    between atoms: _538  and  _539
REMARK  227  A    between atoms: _538  and  _541
REMARK  228  A    between atoms: _541  and  _542
REMARK  229  A    between atoms: _542  and  _543
REMARK                            x       y       z     vdW  Elec       q    Type
REMARK                         _______ _______ _______ _____ _____    ______ ____
ROOT
ATOM      1  C   CYS A   4       8.203   1.228  24.892  0.00  0.00    +0.242 C 
ATOM      2  O   CYS A   4       7.652   0.381  25.596  0.00  0.00    -0.273 OA
ATOM      3  N   GLY A   5       7.504   2.072  24.145  0.00  0.00    -0.295 N 
ATOM      4  H   GLY A   5       7.981   2.761  23.528  0.00  0.00    +0.150 HD
ENDROOT
BRANCH   3   5
ATOM      5  CA  GLY A   5       6.054   2.008  24.212  0.00  0.00    +0.176 C 
BRANCH   5   6
ATOM      6  C   GLY A   5       5.704   2.226  25.677  0.00  0.00    +0.243 C 
ATOM      7  O   GLY A   5       6.365   3.009  26.349  0.00  0.00    -0.273 OA
ATOM      8  N   LEU A   6       4.687   1.545  26.191  0.00  0.00    -0.297 N 
ATOM      9  H   LEU A   6       4.146   0.891  25.590  0.00  0.00    +0.150 HD
BRANCH   8  10
ATOM     10  CA  LEU A   6       4.324   1.709  27.597  0.00  0.00    +0.149 C 
BRANCH  10  11
ATOM     11  C   LEU A   6       4.842   0.581  28.487  0.00  0.00    +0.241 C 
ATOM     12  O   LEU A   6       4.445   0.468  29.648  0.00  0.00    -0.273 OA
ATOM     13  N   ASN A   7       5.751  -0.228  27.940  0.00  0.00    -0.297 N 
ATOM     14  H   ASN A   7       6.052  -0.038  26.963  0.00  0.00    +0.150 HD
BRANCH  13  15
ATOM     15  CA  ASN A   7       6.348  -1.366  28.637  0.00  0.00    +0.158 C 
BRANCH  15  16
ATOM     16  C   ASN A   7       6.990  -1.088  30.008  0.00  0.00    +0.244 C 
ATOM     17  O   ASN A   7       6.921  -1.934  30.910  0.00  0.00    -0.273 OA
ATOM     18  N   PRO A   8       7.627   0.085  30.186  0.00  0.00    -0.273 N 
ATOM     19  CA  PRO A   8       8.264   0.427  31.470  0.00  0.00    +0.140 C 
ATOM     20  CB  PRO A   8       8.783   1.842  31.242  0.00  0.00    +0.030 C 
ATOM     21  CG  PRO A   8       9.063   1.879  29.767  0.00  0.00    +0.024 C 
ATOM     22  CD  PRO A   8       7.878   1.133  29.179  0.00  0.00    +0.094 C 
BRANCH  19  23
ATOM     23  C   PRO A   8       7.291   0.368  32.647  0.00  0.00    +0.227 C 
ATOM     24  O   PRO A   8       7.697   0.147  33.798  0.00  0.00    -0.286 OA
ENDBRANCH  19  23
ENDBRANCH  15  16
BRANCH  15  25
ATOM     25  CB  ASN A   7       7.369  -2.049  27.717  0.00  0.00    +0.114 C 
BRANCH  25  26
ATOM     26  CG  ASN A   7       7.995  -3.274  28.346  0.00  0.00    +0.222 C 
ATOM     27  ND2 ASN A   7       7.171  -4.270  28.638  0.00  0.00    -0.329 N 
ATOM     28 HD21 ASN A   7       7.540  -5.139  29.074  0.00  0.00    +0.145 HD
ATOM     29 HD22 ASN A   7       6.156  -4.183  28.431  0.00  0.00    +0.145 HD
ATOM     30  OD1 ASN A   7       9.210  -3.326  28.571  0.00  0.00    -0.275 OA
ENDBRANCH  25  26
ENDBRANCH  15  25
ENDBRANCH  13  15
ENDBRANCH  10  11
BRANCH  10  31
ATOM     31  CB  LEU A   6       2.799   1.841  27.735  0.00  0.00    +0.029 C 
BRANCH  31  32
ATOM     32  CG  LEU A   6       2.261   3.174  27.196  0.00  0.00    +0.002 C 
ATOM     33  CD2 LEU A   6       3.001   4.324  27.866  0.00  0.00    +0.000 C 
ATOM     34  CD1 LEU A   6       0.773   3.296  27.474  0.00  0.00    +0.000 C 
ENDBRANCH  31  32
ENDBRANCH  10  31
ENDBRANCH   8  10
ENDBRANCH   5   6
ENDBRANCH   3   5
BRANCH   1  35
ATOM     35  CA  CYS A   4       9.725   1.314  24.875  0.00  0.00    +0.160 C 
BRANCH  35  37
ATOM     36  C   ALA A   3      10.343   1.400  22.495  0.00  0.00    +0.241 C 
ATOM     37  N   CYS A   4      10.470   1.857  23.739  0.00  0.00    -0.296 N 
ATOM     38  H   CYS A   4      11.132   2.640  23.912  0.00  0.00    +0.150 HD
ATOM     39  O   ALA A   3       9.504   0.561  22.158  0.00  0.00    -0.273 OA
BRANCH  36  40
ATOM     40  CA  ALA A   3      11.303   2.020  21.476  0.00  0.00    +0.149 C 
ATOM     41  CB  ALA A   3      11.360   1.160  20.213  0.00  0.00    +0.031 C 
BRANCH  40  44
ATOM     42  C   LEU A   2      13.107   0.973  22.778  0.00  0.00    +0.241 C 
ATOM     43  O   LEU A   2      12.544  -0.124  22.782  0.00  0.00    -0.273 OA
ATOM     44  N   ALA A   3      12.612   2.043  22.150  0.00  0.00    -0.297 N 
ATOM     45  H   ALA A   3      13.169   2.921  22.137  0.00  0.00    +0.150 HD
BRANCH  42  46
ATOM     46  CA  LEU A   2      14.451   1.145  23.495  0.00  0.00    +0.149 C 
BRANCH  46  49
ATOM     47  C   ASP A   1      14.093   0.780  25.896  0.00  0.00    +0.239 C 
ATOM     48  O   ASP A   1      13.634   1.914  26.066  0.00  0.00    -0.274 OA
ATOM     49  N   LEU A   2      14.510   0.335  24.712  0.00  0.00    -0.297 N 
ATOM     50  H   LEU A   2      14.894  -0.630  24.650  0.00  0.00    +0.150 HD
BRANCH  47  51
ATOM     51  CA  ASP A   1      14.239  -0.188  27.074  0.00  0.00    +0.156 C 
BRANCH  51  52
ATOM     52  N   ASP A   1      15.421   0.216  27.843  0.00  0.00    -0.238 NA
ATOM     53  H   ASP A   1      15.442   1.173  28.250  0.00  0.00    +0.142 HD
ENDBRANCH  51  52
BRANCH  51  54
ATOM     54  CB  ASP A   1      13.008  -0.120  27.993  0.00  0.00    +0.140 C 
BRANCH  54  55
ATOM     55  CG  ASP A   1      11.802  -0.893  27.457  0.00  0.00    +0.367 C 
ATOM     56  OD2 ASP A   1      10.779  -0.933  28.166  0.00  0.00    -0.246 OA
ATOM     57  OD1 ASP A   1      11.861  -1.462  26.349  0.00  0.00    -0.246 OA
ENDBRANCH  54  55
ENDBRANCH  51  54
ENDBRANCH  47  51
ENDBRANCH  46  49
BRANCH  46  58
ATOM     58  CB  LEU A   2      15.608   0.753  22.570  0.00  0.00    +0.029 C 
BRANCH  58  59
ATOM     59  CG  LEU A   2      16.987   0.884  23.225  0.00  0.00    +0.002 C 
ATOM     60  CD2 LEU A   2      17.260   2.335  23.554  0.00  0.00    +0.000 C 
ATOM     61  CD1 LEU A   2      18.057   0.339  22.290  0.00  0.00    +0.000 C 
ENDBRANCH  58  59
ENDBRANCH  46  58
ENDBRANCH  42  46
ENDBRANCH  40  44
ENDBRANCH  36  40
ENDBRANCH  35  37
BRANCH  35  62
ATOM     62  CB  CYS A   4      10.191   2.018  26.163  0.00  0.00    +0.098 C 
ATOM     63  SG  CYS A   4       9.603   3.726  26.365  0.00  0.00    -0.080 S 
ENDBRANCH  35  62
ENDBRANCH   1  35
TORSDOF 24
REMARK  Name = ../refined-set-2016/3lcu/3lcu_pocket.pdb
REMARK  229 active torsions:
REMARK  status: ('A' for Active; 'I' for Inactive)
REMARK    1  A    between atoms: _1  and  _3
REMARK    2  A    between atoms: _3  and  _4
REMARK    3  A    between atoms: _3  and  _6
REMARK    4  A    between atoms: _9  and  _11
REMARK    5  A    between atoms: _11  and  _12
REMARK    6  A    between atoms: _15  and  _17
REMARK    7  A    between atoms: _17  and  _18
REMARK    8  A    between atoms: _17  and  _20
REMARK    9  A    between atoms: _20  and  _21
REMARK   10  A    between atoms: _24  and  _26
REMARK   11  A    between atoms: _26  and  _27
REMARK   12  A    between atoms: _26  and  _29
REMARK   13  A    between atoms: _29  and  _30
REMARK   14  A    between atoms: _30  and  _31
REMARK   15  A    between atoms: _31  and  _32
REMARK   16  A    between atoms: _41  and  _43
REMARK   17  A    between atoms: _43  and  _44
REMARK   18  A    between atoms: _43  and  _46
REMARK   19  A    between atoms: _46  and  _47
REMARK   20  A    between atoms: _50  and  _52
REMARK   21  A    between atoms: _52  and  _53
REMARK   22  A    between atoms: _55  and  _57
REMARK   23  A    between atoms: _57  and  _58
REMARK   24  A    between atoms: _57  and  _60
REMARK   25  A    between atoms: _60  and  _61
REMARK   26  A    between atoms: _64  and  _66
REMARK   27  A    between atoms: _66  and  _67
REMARK   28  A    between atoms: _66  and  _69
REMARK   29  A    between atoms: _69  and  _70
REMARK   30  A    between atoms: _70  and  _71
REMARK   31  A    between atoms: _74  and  _76
REMARK   32  A    between atoms: _76  and  _77
REMARK   33  A    between atoms: _76  and  _79
REMARK   34  A    between atoms: _79  and  _80
REMARK   35  A    between atoms: _83  and  _85
REMARK   36  A    between atoms: _85  and  _86
REMARK   37  A    between atoms: _85  and  _88
REMARK   38  A    between atoms: _88  and  _89
REMARK   39  A    between atoms: _94  and  _95
REMARK   40  A    between atoms: _97  and  _99
REMARK   41  A    between atoms: _99  and  _100
REMARK   42  A    between atoms: _102  and  _104
REMARK   43  A    between atoms: _104  and  _105
REMARK   44  A    between atoms: _108  and  _110
REMARK   45  A    between atoms: _110  and  _111
REMARK   46  A    between atoms: _110  and  _113
REMARK   47  A    between atoms: _113  and  _114
REMARK   48  A    between atoms: _120  and  _122
REMARK   49  A    between atoms: _122  and  _123
REMARK   50  A    between atoms: _122  and  _125
REMARK   51  A    between atoms: _125  and  _126
REMARK   52  A    between atoms: _129  and  _131
REMARK   53  A    between atoms: _131  and  _132
REMARK   54  A    between atoms: _131  and  _134
REMARK   55  A    between atoms: _134  and  _135
REMARK   56  A    between atoms: _135  and  _136
REMARK   57  A    between atoms: _138  and  _140
REMARK   58  A    between atoms: _140  and  _141
REMARK   59  A    between atoms: _140  and  _143
REMARK   60  A    between atoms: _143  and  _144
REMARK   61  A    between atoms: _149  and  _151
REMARK   62  A    between atoms: _151  and  _152
REMARK   63  A    between atoms: _151  and  _154
REMARK   64  A    between atoms: _154  and  _155
REMARK   65  A    between atoms: _158  and  _160
REMARK   66  A    between atoms: _160  and  _161
REMARK   67  A    between atoms: _160  and  _163
REMARK   68  A    between atoms: _163  and  _164
REMARK   69  A    between atoms: _166  and  _168
REMARK   70  A    between atoms: _168  and  _169
REMARK   71  A    between atoms: _168  and  _171
REMARK   72  A    between atoms: _171  and  _172
REMARK   73  A    between atoms: _175  and  _177
REMARK   74  A    between atoms: _177  and  _178
REMARK   75  A    between atoms: _177  and  _180
REMARK   76  A    between atoms: _180  and  _181
REMARK   77  A    between atoms: _181  and  _182
REMARK   78  A    between atoms: _182  and  _183
REMARK   79  A    between atoms: _192  and  _194
REMARK   80  A    between atoms: _194  and  _195
REMARK   81  A    between atoms: _194  and  _197
REMARK   82  A    between atoms: _197  and  _198
REMARK   83  A    between atoms: _198  and  _199
REMARK   84  A    between atoms: _202  and  _204
REMARK   85  A    between atoms: _204  and  _205
REMARK   86  A    between atoms: _204  and  _207
REMARK   87  A    between atoms: _207  and  _208
REMARK   88  A    between atoms: _208  and  _209
REMARK   89  A    between atoms: _209  and  _210
REMARK   90  A    between atoms: _219  and  _221
REMARK   91  A    between atoms: _221  and  _222
REMARK   92  A    between atoms: _221  and  _224
REMARK   93  A    between atoms: _224  and  _225
REMARK   94  A    between atoms: _228  and  _230
REMARK   95  A    between atoms: _230  and  _231
REMARK   96  A    between atoms: _230  and  _233
REMARK   97  A    between atoms: _233  and  _234
REMARK   98  A    between atoms: _240  and  _242
REMARK   99  A    between atoms: _242  and  _243
REMARK  100  A    between atoms: _242  and  _245
REMARK  101  A    between atoms: _245  and  _246
REMARK  102  A    between atoms: _251  and  _252
REMARK  103  A    between atoms: _254  and  _256
REMARK  104  A    between atoms: _256  and  _257
REMARK  105  A    between atoms: _256  and  _259
REMARK  106  A    between atoms: _259  and  _260
REMARK  107  A    between atoms: _263  and  _265
REMARK  108  A    between atoms: _265  and  _266
REMARK  109  A    between atoms: _265  and  _268
REMARK  110  A    between atoms: _268  and  _269
REMARK  111  A    between atoms: _272  and  _274
REMARK  112  A    between atoms: _274  and  _275
REMARK  113  A    between atoms: _278  and  _280
REMARK  114  A    between atoms: _280  and  _281
REMARK  115  A    between atoms: _280  and  _283
REMARK  116  A    between atoms: _285  and  _287
REMARK  117  A    between atoms: _287  and  _288
REMARK  118  A    between atoms: _290  and  _292
REMARK  119  A    between atoms: _292  and  _293
REMARK  120  A    between atoms: _292  and  _295
REMARK  121  A    between atoms: _295  and  _296
REMARK  122  A    between atoms: _299  and  _301
REMARK  123  A    between atoms: _301  and  _302
REMARK  124  A    between atoms: _301  and  _304
REMARK  125  A    between atoms: _304  and  _305
REMARK  126  A    between atoms: _311  and  _312
REMARK  127  A    between atoms: _317  and  _319
REMARK  128  A    between atoms: _319  and  _320
REMARK  129  A    between atoms: _319  and  _322
REMARK  130  A    between atoms: _322  and  _323
REMARK  131  A    between atoms: _325  and  _327
REMARK  132  A    between atoms: _327  and  _328
REMARK  133  A    between atoms: _327  and  _330
REMARK  134  A    between atoms: _330  and  _331
REMARK  135  A    between atoms: _334  and  _336
REMARK  136  A    between atoms: _336  and  _337
REMARK  137  A    between atoms: _336  and  _339
REMARK  138  A    between atoms: _339  and  _340
REMARK  139  A    between atoms: _343  and  _345
REMARK  140  A    between atoms: _345  and  _346
REMARK  141  A    between atoms: _345  and  _348
REMARK  142  A    between atoms: _348  and  _349
REMARK  143  A    between atoms: _352  and  _354
REMARK  144  A    between atoms: _354  and  _355
REMARK  145  A    between atoms: _354  and  _357
REMARK  146  A    between atoms: _357  and  _358
REMARK  147  A    between atoms: _361  and  _363
REMARK  148  A    between atoms: _363  and  _364
REMARK  149  A    between atoms: _363  and  _366
REMARK  150  A    between atoms: _369  and  _371
REMARK  151  A    between atoms: _371  and  _372
REMARK  152  A    between atoms: _375  and  _377
REMARK  153  A    between atoms: _377  and  _378
REMARK  154  A    between atoms: _377  and  _380
REMARK  155  A    between atoms: _380  and  _381
REMARK  156  A    between atoms: _384  and  _386
REMARK  157  A    between atoms: _386  and  _387
REMARK  158  A    between atoms: _386  and  _389
REMARK  159  A    between atoms: _389  and  _390
REMARK  160  A    between atoms: _393  and  _395
REMARK  161  A    between atoms: _395  and  _396
REMARK  162  A    between atoms: _395  and  _398
REMARK  163  A    between atoms: _398  and  _399
REMARK  164  A    between atoms: _402  and  _404
REMARK  165  A    between atoms: _404  and  _405
REMARK  166  A    between atoms: _404  and  _407
REMARK  167  A    between atoms: _407  and  _408
REMARK  168  A    between atoms: _408  and  _409
REMARK  169  A    between atoms: _412  and  _414
REMARK  170  A    between atoms: _414  and  _415
REMARK  171  A    between atoms: _414  and  _417
REMARK  172  A    between atoms: _417  and  _418
REMARK  173  A    between atoms: _421  and  _423
REMARK  174  A    between atoms: _423  and  _424
REMARK  175  A    between atoms: _423  and  _426
REMARK  176  A    between atoms: _426  and  _427
REMARK  177  A    between atoms: _430  and  _432
REMARK  178  A    between atoms: _432  and  _433
REMARK  179  A    between atoms: _432  and  _435
REMARK  180  A    between atoms: _435  and  _436
REMARK  181  A    between atoms: _439  and  _441
REMARK  182  A    between atoms: _441  and  _442
REMARK  183  A    between atoms: _441  and  _444
REMARK  184  A    between atoms: _444  and  _445
REMARK  185  A    between atoms: _448  and  _450
REMARK  186  A    between atoms: _450  and  _451
REMARK  187  A    between atoms: _450  and  _453
REMARK  188  A    between atoms: _453  and  _454
REMARK  189  A    between atoms: _454  and  _455
REMARK  190  A    between atoms: _455  and  _456
REMARK  191  A    between atoms: _456  and  _457
REMARK  192  A    between atoms: _461  and  _463
REMARK  193  A    between atoms: _463  and  _464
REMARK  194  A    between atoms: _463  and  _466
REMARK  195  A    between atoms: _466  and  _467
REMARK  196  A    between atoms: _470  and  _472
REMARK  197  A    between atoms: _472  and  _473
REMARK  198  A    between atoms: _472  and  _475
REMARK  199  A    between atoms: _475  and  _476
REMARK  200  A    between atoms: _479  and  _481
REMARK  201  A    between atoms: _481  and  _482
REMARK  202  A    between atoms: _481  and  _484
REMARK  203  A    between atoms: _486  and  _488
REMARK  204  A    between atoms: _488  and  _489
REMARK  205  A    between atoms: _488  and  _491
REMARK  206  A    between atoms: _491  and  _492
REMARK  207  A    between atoms: _495  and  _497
REMARK  208  A    between atoms: _497  and  _498
REMARK  209  A    between atoms: _497  and  _500
REMARK  210  A    between atoms: _500  and  _501
REMARK  211  A    between atoms: _501  and  _502
REMARK  212  A    between atoms: _507  and  _509
REMARK  213  A    between atoms: _509  and  _510
REMARK  214  A    between atoms: _509  and  _512
REMARK  215  A    between atoms: _512  and  _513
REMARK  216  A    between atoms: _513  and  _514
REMARK  217  A    between atoms: _519  and  _521
REMARK  218  A    between atoms: _521  and  _522
REMARK  219  A    between atoms: _521  and  _524
REMARK  220  A    between atoms: _524  and  _525
REMARK  221  A    between atoms: _527  and  _529
REMARK  222  A    between atoms: _529  and  _530
REMARK  223  A    between atoms: _529  and  _532
REMARK  224  A    between atoms: _532  and  _533
REMARK  225  A    between atoms: _536  and  _538
REMARK  226  A    between atoms: _538  and  _539
REMARK  227  A    between atoms: _538  and  _541
REMARK  228  A    between atoms: _541  and  _542
REMARK  229  A    between atoms: _542  and  _543
REMARK                            x       y       z     vdW  Elec       q    Type
REMARK                         _______ _______ _______ _____ _____    ______ ____
ROOT
ATOM      1  C   ASP A   2      10.758   7.416  21.589  0.00  0.00    +0.241 C 
ATOM      2  O   ASP A   2      11.528   8.348  21.811  0.00  0.00    -0.273 OA
ATOM      3  N   ILE A   3       9.857   7.433  20.619  0.00  0.00    -0.297 N 
ATOM      4  H   ILE A   3       9.182   6.645  20.553  0.00  0.00    +0.150 HD
ENDROOT
BRANCH   3   5
ATOM      5  CA  ILE A   3       9.771   8.509  19.639  0.00  0.00    +0.149 C 
BRANCH   5   6
ATOM      6  C   ILE A   3       8.737   9.620  19.888  0.00  0.00    +0.241 C 
ATOM      7  N   ASP A   4       8.073   9.586  21.035  0.00  0.00    -0.298 N 
ATOM      8  H   ASP A   4       8.251   8.819  21.714  0.00  0.00    +0.150 HD
ATOM      9  O   ILE A   3       8.545  10.503  19.053  0.00  0.00    -0.273 OA
BRANCH   7  10
ATOM     10  CA  ASP A   4       7.093  10.621  21.348  0.00  0.00    +0.148 C 
BRANCH  10  11
ATOM     11  C   ASP A   4       7.371  11.196  22.732  0.00  0.00    +0.227 C 
ATOM     12  O   ASP A   4       7.439  10.456  23.708  0.00  0.00    -0.286 OA
ENDBRANCH  10  11
BRANCH  10  13
ATOM     13  CB  ASP A   4       5.667  10.066  21.297  0.00  0.00    +0.142 C 
BRANCH  13  14
ATOM     14  CG  ASP A   4       4.624  11.148  21.526  0.00  0.00    +0.367 C 
ATOM     15  OD2 ASP A   4       4.023  11.169  22.619  0.00  0.00    -0.246 OA
ATOM     16  OD1 ASP A   4       4.423  11.991  20.622  0.00  0.00    -0.246 OA
ENDBRANCH  13  14
ENDBRANCH  10  13
ENDBRANCH   7  10
ENDBRANCH   5   6
BRANCH   5  17
ATOM     17  CB  ILE A   3       9.595   7.847  18.226  0.00  0.00    +0.027 C 
ATOM     18  CG2 ILE A   3       8.216   8.067  17.655  0.00  0.00    +0.002 C 
BRANCH  17  19
ATOM     19  CG1 ILE A   3      10.704   8.333  17.309  0.00  0.00    +0.002 C 
ATOM     20  CD1 ILE A   3      12.053   7.895  17.770  0.00  0.00    +0.000 C 
ENDBRANCH  17  19
ENDBRANCH   5  17
ENDBRANCH   3   5
BRANCH   1  21
ATOM     21  CA  ASP A   2      10.766   6.178  22.471  0.00  0.00    +0.160 C 
BRANCH  21  24
ATOM     22  C   SER A   1      12.257   5.481  24.259  0.00  0.00    +0.241 C 
ATOM     23  O   SER A   1      12.085   4.290  24.026  0.00  0.00    -0.274 OA
ATOM     24  N   ASP A   2      11.631   6.450  23.600  0.00  0.00    -0.297 N 
ATOM     25  H   ASP A   2      11.767   7.435  23.905  0.00  0.00    +0.150 HD
BRANCH  22  26
ATOM     26  CA  SER A   1      13.176   5.937  25.376  0.00  0.00    +0.174 C 
BRANCH  26  27
ATOM     27  N   SER A   1      13.302   4.935  26.420  0.00  0.00    -0.236 NA
ATOM     28  H   SER A   1      13.186   3.927  26.190  0.00  0.00    +0.142 HD
ENDBRANCH  26  27
BRANCH  26  29
ATOM     29  CB  SER A   1      14.555   6.305  24.800  0.00  0.00    +0.163 C 
BRANCH  29  30
ATOM     30  OG  SER A   1      15.201   5.199  24.197  0.00  0.00    -0.380 OA
ATOM     31  H   SER A   1      14.642   4.855  23.456  0.00  0.00    +0.211 HD
ENDBRANCH  29  30
ENDBRANCH  26  29
ENDBRANCH  22  26
ENDBRANCH  21  24
BRANCH  21  32
ATOM     32  CB  ASP A   2       9.340   5.808  22.905  0.00  0.00    +0.143 C 
BRANCH  32  33
ATOM     33  CG  ASP A   2       8.618   4.955  21.861  0.00  0.00    +0.367 C 
ATOM     34  OD2 ASP A   2       8.225   3.810  22.167  0.00  0.00    -0.246 OA
ATOM     35  OD1 ASP A   2       8.445   5.417  20.718  0.00  0.00    -0.246 OA
ENDBRANCH  32  33
ENDBRANCH  21  32
ENDBRANCH   1  21
TORSDOF 16
REMARK  Name = ../refined-set-2016/3lcu/3lcu_pocket.pdb
REMARK  229 active torsions:
REMARK  status: ('A' for Active; 'I' for Inactive)
REMARK    1  A    between atoms: _1  and  _3
REMARK    2  A    between atoms: _3  and  _4
REMARK    3  A    between atoms: _3  and  _6
REMARK    4  A    between atoms: _9  and  _11
REMARK    5  A    between atoms: _11  and  _12
REMARK    6  A    between atoms: _15  and  _17
REMARK    7  A    between atoms: _17  and  _18
REMARK    8  A    between atoms: _17  and  _20
REMARK    9  A    between atoms: _20  and  _21
REMARK   10  A    between atoms: _24  and  _26
REMARK   11  A    between atoms: _26  and  _27
REMARK   12  A    between atoms: _26  and  _29
REMARK   13  A    between atoms: _29  and  _30
REMARK   14  A    between atoms: _30  and  _31
REMARK   15  A    between atoms: _31  and  _32
REMARK   16  A    between atoms: _41  and  _43
REMARK   17  A    between atoms: _43  and  _44
REMARK   18  A    between atoms: _43  and  _46
REMARK   19  A    between atoms: _46  and  _47
REMARK   20  A    between atoms: _50  and  _52
REMARK   21  A    between atoms: _52  and  _53
REMARK   22  A    between atoms: _55  and  _57
REMARK   23  A    between atoms: _57  and  _58
REMARK   24  A    between atoms: _57  and  _60
REMARK   25  A    between atoms: _60  and  _61
REMARK   26  A    between atoms: _64  and  _66
REMARK   27  A    between atoms: _66  and  _67
REMARK   28  A    between atoms: _66  and  _69
REMARK   29  A    between atoms: _69  and  _70
REMARK   30  A    between atoms: _70  and  _71
REMARK   31  A    between atoms: _74  and  _76
REMARK   32  A    between atoms: _76  and  _77
REMARK   33  A    between atoms: _76  and  _79
REMARK   34  A    between atoms: _79  and  _80
REMARK   35  A    between atoms: _83  and  _85
REMARK   36  A    between atoms: _85  and  _86
REMARK   37  A    between atoms: _85  and  _88
REMARK   38  A    between atoms: _88  and  _89
REMARK   39  A    between atoms: _94  and  _95
REMARK   40  A    between atoms: _97  and  _99
REMARK   41  A    between atoms: _99  and  _100
REMARK   42  A    between atoms: _102  and  _104
REMARK   43  A    between atoms: _104  and  _105
REMARK   44  A    between atoms: _108  and  _110
REMARK   45  A    between atoms: _110  and  _111
REMARK   46  A    between atoms: _110  and  _113
REMARK   47  A    between atoms: _113  and  _114
REMARK   48  A    between atoms: _120  and  _122
REMARK   49  A    between atoms: _122  and  _123
REMARK   50  A    between atoms: _122  and  _125
REMARK   51  A    between atoms: _125  and  _126
REMARK   52  A    between atoms: _129  and  _131
REMARK   53  A    between atoms: _131  and  _132
REMARK   54  A    between atoms: _131  and  _134
REMARK   55  A    between atoms: _134  and  _135
REMARK   56  A    between atoms: _135  and  _136
REMARK   57  A    between atoms: _138  and  _140
REMARK   58  A    between atoms: _140  and  _141
REMARK   59  A    between atoms: _140  and  _143
REMARK   60  A    between atoms: _143  and  _144
REMARK   61  A    between atoms: _149  and  _151
REMARK   62  A    between atoms: _151  and  _152
REMARK   63  A    between atoms: _151  and  _154
REMARK   64  A    between atoms: _154  and  _155
REMARK   65  A    between atoms: _158  and  _160
REMARK   66  A    between atoms: _160  and  _161
REMARK   67  A    between atoms: _160  and  _163
REMARK   68  A    between atoms: _163  and  _164
REMARK   69  A    between atoms: _166  and  _168
REMARK   70  A    between atoms: _168  and  _169
REMARK   71  A    between atoms: _168  and  _171
REMARK   72  A    between atoms: _171  and  _172
REMARK   73  A    between atoms: _175  and  _177
REMARK   74  A    between atoms: _177  and  _178
REMARK   75  A    between atoms: _177  and  _180
REMARK   76  A    between atoms: _180  and  _181
REMARK   77  A    between atoms: _181  and  _182
REMARK   78  A    between atoms: _182  and  _183
REMARK   79  A    between atoms: _192  and  _194
REMARK   80  A    between atoms: _194  and  _195
REMARK   81  A    between atoms: _194  and  _197
REMARK   82  A    between atoms: _197  and  _198
REMARK   83  A    between atoms: _198  and  _199
REMARK   84  A    between atoms: _202  and  _204
REMARK   85  A    between atoms: _204  and  _205
REMARK   86  A    between atoms: _204  and  _207
REMARK   87  A    between atoms: _207  and  _208
REMARK   88  A    between atoms: _208  and  _209
REMARK   89  A    between atoms: _209  and  _210
REMARK   90  A    between atoms: _219  and  _221
REMARK   91  A    between atoms: _221  and  _222
REMARK   92  A    between atoms: _221  and  _224
REMARK   93  A    between atoms: _224  and  _225
REMARK   94  A    between atoms: _228  and  _230
REMARK   95  A    between atoms: _230  and  _231
REMARK   96  A    between atoms: _230  and  _233
REMARK   97  A    between atoms: _233  and  _234
REMARK   98  A    between atoms: _240  and  _242
REMARK   99  A    between atoms: _242  and  _243
REMARK  100  A    between atoms: _242  and  _245
REMARK  101  A    between atoms: _245  and  _246
REMARK  102  A    between atoms: _251  and  _252
REMARK  103  A    between atoms: _254  and  _256
REMARK  104  A    between atoms: _256  and  _257
REMARK  105  A    between atoms: _256  and  _259
REMARK  106  A    between atoms: _259  and  _260
REMARK  107  A    between atoms: _263  and  _265
REMARK  108  A    between atoms: _265  and  _266
REMARK  109  A    between atoms: _265  and  _268
REMARK  110  A    between atoms: _268  and  _269
REMARK  111  A    between atoms: _272  and  _274
REMARK  112  A    between atoms: _274  and  _275
REMARK  113  A    between atoms: _278  and  _280
REMARK  114  A    between atoms: _280  and  _281
REMARK  115  A    between atoms: _280  and  _283
REMARK  116  A    between atoms: _285  and  _287
REMARK  117  A    between atoms: _287  and  _288
REMARK  118  A    between atoms: _290  and  _292
REMARK  119  A    between atoms: _292  and  _293
REMARK  120  A    between atoms: _292  and  _295
REMARK  121  A    between atoms: _295  and  _296
REMARK  122  A    between atoms: _299  and  _301
REMARK  123  A    between atoms: _301  and  _302
REMARK  124  A    between atoms: _301  and  _304
REMARK  125  A    between atoms: _304  and  _305
REMARK  126  A    between atoms: _311  and  _312
REMARK  127  A    between atoms: _317  and  _319
REMARK  128  A    between atoms: _319  and  _320
REMARK  129  A    between atoms: _319  and  _322
REMARK  130  A    between atoms: _322  and  _323
REMARK  131  A    between atoms: _325  and  _327
REMARK  132  A    between atoms: _327  and  _328
REMARK  133  A    between atoms: _327  and  _330
REMARK  134  A    between atoms: _330  and  _331
REMARK  135  A    between atoms: _334  and  _336
REMARK  136  A    between atoms: _336  and  _337
REMARK  137  A    between atoms: _336  and  _339
REMARK  138  A    between atoms: _339  and  _340
REMARK  139  A    between atoms: _343  and  _345
REMARK  140  A    between atoms: _345  and  _346
REMARK  141  A    between atoms: _345  and  _348
REMARK  142  A    between atoms: _348  and  _349
REMARK  143  A    between atoms: _352  and  _354
REMARK  144  A    between atoms: _354  and  _355
REMARK  145  A    between atoms: _354  and  _357
REMARK  146  A    between atoms: _357  and  _358
REMARK  147  A    between atoms: _361  and  _363
REMARK  148  A    between atoms: _363  and  _364
REMARK  149  A    between atoms: _363  and  _366
REMARK  150  A    between atoms: _369  and  _371
REMARK  151  A    between atoms: _371  and  _372
REMARK  152  A    between atoms: _375  and  _377
REMARK  153  A    between atoms: _377  and  _378
REMARK  154  A    between atoms: _377  and  _380
REMARK  155  A    between atoms: _380  and  _381
REMARK  156  A    between atoms: _384  and  _386
REMARK  157  A    between atoms: _386  and  _387
REMARK  158  A    between atoms: _386  and  _389
REMARK  159  A    between atoms: _389  and  _390
REMARK  160  A    between atoms: _393  and  _395
REMARK  161  A    between atoms: _395  and  _396
REMARK  162  A    between atoms: _395  and  _398
REMARK  163  A    between atoms: _398  and  _399
REMARK  164  A    between atoms: _402  and  _404
REMARK  165  A    between atoms: _404  and  _405
REMARK  166  A    between atoms: _404  and  _407
REMARK  167  A    between atoms: _407  and  _408
REMARK  168  A    between atoms: _408  and  _409
REMARK  169  A    between atoms: _412  and  _414
REMARK  170  A    between atoms: _414  and  _415
REMARK  171  A    between atoms: _414  and  _417
REMARK  172  A    between atoms: _417  and  _418
REMARK  173  A    between atoms: _421  and  _423
REMARK  174  A    between atoms: _423  and  _424
REMARK  175  A    between atoms: _423  and  _426
REMARK  176  A    between atoms: _426  and  _427
REMARK  177  A    between atoms: _430  and  _432
REMARK  178  A    between atoms: _432  and  _433
REMARK  179  A    between atoms: _432  and  _435
REMARK  180  A    between atoms: _435  and  _436
REMARK  181  A    between atoms: _439  and  _441
REMARK  182  A    between atoms: _441  and  _442
REMARK  183  A    between atoms: _441  and  _444
REMARK  184  A    between atoms: _444  and  _445
REMARK  185  A    between atoms: _448  and  _450
REMARK  186  A    between atoms: _450  and  _451
REMARK  187  A    between atoms: _450  and  _453
REMARK  188  A    between atoms: _453  and  _454
REMARK  189  A    between atoms: _454  and  _455
REMARK  190  A    between atoms: _455  and  _456
REMARK  191  A    between atoms: _456  and  _457
REMARK  192  A    between atoms: _461  and  _463
REMARK  193  A    between atoms: _463  and  _464
REMARK  194  A    between atoms: _463  and  _466
REMARK  195  A    between atoms: _466  and  _467
REMARK  196  A    between atoms: _470  and  _472
REMARK  197  A    between atoms: _472  and  _473
REMARK  198  A    between atoms: _472  and  _475
REMARK  199  A    between atoms: _475  and  _476
REMARK  200  A    between atoms: _479  and  _481
REMARK  201  A    between atoms: _481  and  _482
REMARK  202  A    between atoms: _481  and  _484
REMARK  203  A    between atoms: _486  and  _488
REMARK  204  A    between atoms: _488  and  _489
REMARK  205  A    between atoms: _488  and  _491
REMARK  206  A    between atoms: _491  and  _492
REMARK  207  A    between atoms: _495  and  _497
REMARK  208  A    between atoms: _497  and  _498
REMARK  209  A    between atoms: _497  and  _500
REMARK  210  A    between atoms: _500  and  _501
REMARK  211  A    between atoms: _501  and  _502
REMARK  212  A    between atoms: _507  and  _509
REMARK  213  A    between atoms: _509  and  _510
REMARK  214  A    between atoms: _509  and  _512
REMARK  215  A    between atoms: _512  and  _513
REMARK  216  A    between atoms: _513  and  _514
REMARK  217  A    between atoms: _519  and  _521
REMARK  218  A    between atoms: _521  and  _522
REMARK  219  A    between atoms: _521  and  _524
REMARK  220  A    between atoms: _524  and  _525
REMARK  221  A    between atoms: _527  and  _529
REMARK  222  A    between atoms: _529  and  _530
REMARK  223  A    between atoms: _529  and  _532
REMARK  224  A    between atoms: _532  and  _533
REMARK  225  A    between atoms: _536  and  _538
REMARK  226  A    between atoms: _538  and  _539
REMARK  227  A    between atoms: _538  and  _541
REMARK  228  A    between atoms: _541  and  _542
REMARK  229  A    between atoms: _542  and  _543
REMARK                            x       y       z     vdW  Elec       q    Type
REMARK                         _______ _______ _______ _____ _____    ______ ____
ROOT
ATOM      1  CA  LEU A   1       4.442   9.201  25.805  0.00  0.00    +0.133 C 
ENDROOT
BRANCH   1   2
ATOM      2  N   LEU A   1       4.466  10.595  25.368  0.00  0.00    -0.239 NA
ATOM      3  H   LEU A   1       4.590  10.823  24.361  0.00  0.00    +0.142 HD
ENDBRANCH   1   2
BRANCH   1   4
ATOM      4  C   LEU A   1       5.602   8.972  26.765  0.00  0.00    +0.224 C 
ATOM      5  O   LEU A   1       5.422   8.443  27.854  0.00  0.00    -0.287 OA
ENDBRANCH   1   4
BRANCH   1   6
ATOM      6  CB  LEU A   1       4.578   8.242  24.616  0.00  0.00    +0.025 C 
BRANCH   6   7
ATOM      7  CG  LEU A   1       4.599   6.773  25.070  0.00  0.00    +0.002 C 
ATOM      8  CD2 LEU A   1       6.033   6.308  25.258  0.00  0.00    +0.000 C 
ATOM      9  CD1 LEU A   1       3.864   5.908  24.071  0.00  0.00    +0.000 C 
ENDBRANCH   6   7
ENDBRANCH   1   6
TORSDOF 4
REMARK  Name = ../refined-set-2016/3lcu/3lcu_pocket.pdb
REMARK  229 active torsions:
REMARK  status: ('A' for Active; 'I' for Inactive)
REMARK    1  A    between atoms: _1  and  _3
REMARK    2  A    between atoms: _3  and  _4
REMARK    3  A    between atoms: _3  and  _6
REMARK    4  A    between atoms: _9  and  _11
REMARK    5  A    between atoms: _11  and  _12
REMARK    6  A    between atoms: _15  and  _17
REMARK    7  A    between atoms: _17  and  _18
REMARK    8  A    between atoms: _17  and  _20
REMARK    9  A    between atoms: _20  and  _21
REMARK   10  A    between atoms: _24  and  _26
REMARK   11  A    between atoms: _26  and  _27
REMARK   12  A    between atoms: _26  and  _29
REMARK   13  A    between atoms: _29  and  _30
REMARK   14  A    between atoms: _30  and  _31
REMARK   15  A    between atoms: _31  and  _32
REMARK   16  A    between atoms: _41  and  _43
REMARK   17  A    between atoms: _43  and  _44
REMARK   18  A    between atoms: _43  and  _46
REMARK   19  A    between atoms: _46  and  _47
REMARK   20  A    between atoms: _50  and  _52
REMARK   21  A    between atoms: _52  and  _53
REMARK   22  A    between atoms: _55  and  _57
REMARK   23  A    between atoms: _57  and  _58
REMARK   24  A    between atoms: _57  and  _60
REMARK   25  A    between atoms: _60  and  _61
REMARK   26  A    between atoms: _64  and  _66
REMARK   27  A    between atoms: _66  and  _67
REMARK   28  A    between atoms: _66  and  _69
REMARK   29  A    between atoms: _69  and  _70
REMARK   30  A    between atoms: _70  and  _71
REMARK   31  A    between atoms: _74  and  _76
REMARK   32  A    between atoms: _76  and  _77
REMARK   33  A    between atoms: _76  and  _79
REMARK   34  A    between atoms: _79  and  _80
REMARK   35  A    between atoms: _83  and  _85
REMARK   36  A    between atoms: _85  and  _86
REMARK   37  A    between atoms: _85  and  _88
REMARK   38  A    between atoms: _88  and  _89
REMARK   39  A    between atoms: _94  and  _95
REMARK   40  A    between atoms: _97  and  _99
REMARK   41  A    between atoms: _99  and  _100
REMARK   42  A    between atoms: _102  and  _104
REMARK   43  A    between atoms: _104  and  _105
REMARK   44  A    between atoms: _108  and  _110
REMARK   45  A    between atoms: _110  and  _111
REMARK   46  A    between atoms: _110  and  _113
REMARK   47  A    between atoms: _113  and  _114
REMARK   48  A    between atoms: _120  and  _122
REMARK   49  A    between atoms: _122  and  _123
REMARK   50  A    between atoms: _122  and  _125
REMARK   51  A    between atoms: _125  and  _126
REMARK   52  A    between atoms: _129  and  _131
REMARK   53  A    between atoms: _131  and  _132
REMARK   54  A    between atoms: _131  and  _134
REMARK   55  A    between atoms: _134  and  _135
REMARK   56  A    between atoms: _135  and  _136
REMARK   57  A    between atoms: _138  and  _140
REMARK   58  A    between atoms: _140  and  _141
REMARK   59  A    between atoms: _140  and  _143
REMARK   60  A    between atoms: _143  and  _144
REMARK   61  A    between atoms: _149  and  _151
REMARK   62  A    between atoms: _151  and  _152
REMARK   63  A    between atoms: _151  and  _154
REMARK   64  A    between atoms: _154  and  _155
REMARK   65  A    between atoms: _158  and  _160
REMARK   66  A    between atoms: _160  and  _161
REMARK   67  A    between atoms: _160  and  _163
REMARK   68  A    between atoms: _163  and  _164
REMARK   69  A    between atoms: _166  and  _168
REMARK   70  A    between atoms: _168  and  _169
REMARK   71  A    between atoms: _168  and  _171
REMARK   72  A    between atoms: _171  and  _172
REMARK   73  A    between atoms: _175  and  _177
REMARK   74  A    between atoms: _177  and  _178
REMARK   75  A    between atoms: _177  and  _180
REMARK   76  A    between atoms: _180  and  _181
REMARK   77  A    between atoms: _181  and  _182
REMARK   78  A    between atoms: _182  and  _183
REMARK   79  A    between atoms: _192  and  _194
REMARK   80  A    between atoms: _194  and  _195
REMARK   81  A    between atoms: _194  and  _197
REMARK   82  A    between atoms: _197  and  _198
REMARK   83  A    between atoms: _198  and  _199
REMARK   84  A    between atoms: _202  and  _204
REMARK   85  A    between atoms: _204  and  _205
REMARK   86  A    between atoms: _204  and  _207
REMARK   87  A    between atoms: _207  and  _208
REMARK   88  A    between atoms: _208  and  _209
REMARK   89  A    between atoms: _209  and  _210
REMARK   90  A    between atoms: _219  and  _221
REMARK   91  A    between atoms: _221  and  _222
REMARK   92  A    between atoms: _221  and  _224
REMARK   93  A    between atoms: _224  and  _225
REMARK   94  A    between atoms: _228  and  _230
REMARK   95  A    between atoms: _230  and  _231
REMARK   96  A    between atoms: _230  and  _233
REMARK   97  A    between atoms: _233  and  _234
REMARK   98  A    between atoms: _240  and  _242
REMARK   99  A    between atoms: _242  and  _243
REMARK  100  A    between atoms: _242  and  _245
REMARK  101  A    between atoms: _245  and  _246
REMARK  102  A    between atoms: _251  and  _252
REMARK  103  A    between atoms: _254  and  _256
REMARK  104  A    between atoms: _256  and  _257
REMARK  105  A    between atoms: _256  and  _259
REMARK  106  A    between atoms: _259  and  _260
REMARK  107  A    between atoms: _263  and  _265
REMARK  108  A    between atoms: _265  and  _266
REMARK  109  A    between atoms: _265  and  _268
REMARK  110  A    between atoms: _268  and  _269
REMARK  111  A    between atoms: _272  and  _274
REMARK  112  A    between atoms: _274  and  _275
REMARK  113  A    between atoms: _278  and  _280
REMARK  114  A    between atoms: _280  and  _281
REMARK  115  A    between atoms: _280  and  _283
REMARK  116  A    between atoms: _285  and  _287
REMARK  117  A    between atoms: _287  and  _288
REMARK  118  A    between atoms: _290  and  _292
REMARK  119  A    between atoms: _292  and  _293
REMARK  120  A    between atoms: _292  and  _295
REMARK  121  A    between atoms: _295  and  _296
REMARK  122  A    between atoms: _299  and  _301
REMARK  123  A    between atoms: _301  and  _302
REMARK  124  A    between atoms: _301  and  _304
REMARK  125  A    between atoms: _304  and  _305
REMARK  126  A    between atoms: _311  and  _312
REMARK  127  A    between atoms: _317  and  _319
REMARK  128  A    between atoms: _319  and  _320
REMARK  129  A    between atoms: _319  and  _322
REMARK  130  A    between atoms: _322  and  _323
REMARK  131  A    between atoms: _325  and  _327
REMARK  132  A    between atoms: _327  and  _328
REMARK  133  A    between atoms: _327  and  _330
REMARK  134  A    between atoms: _330  and  _331
REMARK  135  A    between atoms: _334  and  _336
REMARK  136  A    between atoms: _336  and  _337
REMARK  137  A    between atoms: _336  and  _339
REMARK  138  A    between atoms: _339  and  _340
REMARK  139  A    between atoms: _343  and  _345
REMARK  140  A    between atoms: _345  and  _346
REMARK  141  A    between atoms: _345  and  _348
REMARK  142  A    between atoms: _348  and  _349
REMARK  143  A    between atoms: _352  and  _354
REMARK  144  A    between atoms: _354  and  _355
REMARK  145  A    between atoms: _354  and  _357
REMARK  146  A    between atoms: _357  and  _358
REMARK  147  A    between atoms: _361  and  _363
REMARK  148  A    between atoms: _363  and  _364
REMARK  149  A    between atoms: _363  and  _366
REMARK  150  A    between atoms: _369  and  _371
REMARK  151  A    between atoms: _371  and  _372
REMARK  152  A    between atoms: _375  and  _377
REMARK  153  A    between atoms: _377  and  _378
REMARK  154  A    between atoms: _377  and  _380
REMARK  155  A    between atoms: _380  and  _381
REMARK  156  A    between atoms: _384  and  _386
REMARK  157  A    between atoms: _386  and  _387
REMARK  158  A    between atoms: _386  and  _389
REMARK  159  A    between atoms: _389  and  _390
REMARK  160  A    between atoms: _393  and  _395
REMARK  161  A    between atoms: _395  and  _396
REMARK  162  A    between atoms: _395  and  _398
REMARK  163  A    between atoms: _398  and  _399
REMARK  164  A    between atoms: _402  and  _404
REMARK  165  A    between atoms: _404  and  _405
REMARK  166  A    between atoms: _404  and  _407
REMARK  167  A    between atoms: _407  and  _408
REMARK  168  A    between atoms: _408  and  _409
REMARK  169  A    between atoms: _412  and  _414
REMARK  170  A    between atoms: _414  and  _415
REMARK  171  A    between atoms: _414  and  _417
REMARK  172  A    between atoms: _417  and  _418
REMARK  173  A    between atoms: _421  and  _423
REMARK  174  A    between atoms: _423  and  _424
REMARK  175  A    between atoms: _423  and  _426
REMARK  176  A    between atoms: _426  and  _427
REMARK  177  A    between atoms: _430  and  _432
REMARK  178  A    between atoms: _432  and  _433
REMARK  179  A    between atoms: _432  and  _435
REMARK  180  A    between atoms: _435  and  _436
REMARK  181  A    between atoms: _439  and  _441
REMARK  182  A    between atoms: _441  and  _442
REMARK  183  A    between atoms: _441  and  _444
REMARK  184  A    between atoms: _444  and  _445
REMARK  185  A    between atoms: _448  and  _450
REMARK  186  A    between atoms: _450  and  _451
REMARK  187  A    between atoms: _450  and  _453
REMARK  188  A    between atoms: _453  and  _454
REMARK  189  A    between atoms: _454  and  _455
REMARK  190  A    between atoms: _455  and  _456
REMARK  191  A    between atoms: _456  and  _457
REMARK  192  A    between atoms: _461  and  _463
REMARK  193  A    between atoms: _463  and  _464
REMARK  194  A    between atoms: _463  and  _466
REMARK  195  A    between atoms: _466  and  _467
REMARK  196  A    between atoms: _470  and  _472
REMARK  197  A    between atoms: _472  and  _473
REMARK  198  A    between atoms: _472  and  _475
REMARK  199  A    between atoms: _475  and  _476
REMARK  200  A    between atoms: _479  and  _481
REMARK  201  A    between atoms: _481  and  _482
REMARK  202  A    between atoms: _481  and  _484
REMARK  203  A    between atoms: _486  and  _488
REMARK  204  A    between atoms: _488  and  _489
REMARK  205  A    between atoms: _488  and  _491
REMARK  206  A    between atoms: _491  and  _492
REMARK  207  A    between atoms: _495  and  _497
REMARK  208  A    between atoms: _497  and  _498
REMARK  209  A    between atoms: _497  and  _500
REMARK  210  A    between atoms: _500  and  _501
REMARK  211  A    between atoms: _501  and  _502
REMARK  212  A    between atoms: _507  and  _509
REMARK  213  A    between atoms: _509  and  _510
REMARK  214  A    between atoms: _509  and  _512
REMARK  215  A    between atoms: _512  and  _513
REMARK  216  A    between atoms: _513  and  _514
REMARK  217  A    between atoms: _519  and  _521
REMARK  218  A    between atoms: _521  and  _522
REMARK  219  A    between atoms: _521  and  _524
REMARK  220  A    between atoms: _524  and  _525
REMARK  221  A    between atoms: _527  and  _529
REMARK  222  A    between atoms: _529  and  _530
REMARK  223  A    between atoms: _529  and  _532
REMARK  224  A    between atoms: _532  and  _533
REMARK  225  A    between atoms: _536  and  _538
REMARK  226  A    between atoms: _538  and  _539
REMARK  227  A    between atoms: _538  and  _541
REMARK  228  A    between atoms: _541  and  _542
REMARK  229  A    between atoms: _542  and  _543
REMARK                            x       y       z     vdW  Elec       q    Type
REMARK                         _______ _______ _______ _____ _____    ______ ____
ROOT
ATOM      1  CA  LEU A   4      17.078   4.324  17.093  0.00  0.00    +0.149 C 
ENDROOT
BRANCH   1   3
ATOM      2  C   ASP A   3      16.410   6.678  17.182  0.00  0.00    +0.241 C 
ATOM      3  N   LEU A   4      16.089   5.389  17.228  0.00  0.00    -0.297 N 
ATOM      4  H   LEU A   4      15.092   5.128  17.366  0.00  0.00    +0.150 HD
ATOM      5  O   ASP A   3      17.561   7.081  17.007  0.00  0.00    -0.273 OA
BRANCH   2   6
ATOM      6  CA  ASP A   3      15.261   7.663  17.377  0.00  0.00    +0.160 C 
BRANCH   6   9
ATOM      7  C   ALA A   2      15.050   8.092  19.779  0.00  0.00    +0.241 C 
ATOM      8  O   ALA A   2      14.228   7.194  19.948  0.00  0.00    -0.273 OA
ATOM      9  N   ASP A   3      15.578   8.398  18.597  0.00  0.00    -0.297 N 
ATOM     10  H   ASP A   3      16.245   9.194  18.540  0.00  0.00    +0.150 HD
BRANCH   7  11
ATOM     11  CA  ALA A   2      15.514   8.937  20.947  0.00  0.00    +0.149 C 
ATOM     12  CB  ALA A   2      16.559   8.177  21.752  0.00  0.00    +0.031 C 
BRANCH  11  15
ATOM     13  C   VAL A   1      14.375  10.562  22.309  0.00  0.00    +0.238 C 
ATOM     14  O   VAL A   1      15.228  11.409  22.047  0.00  0.00    -0.274 OA
ATOM     15  N   ALA A   2      14.420   9.333  21.818  0.00  0.00    -0.297 N 
ATOM     16  H   ALA A   2      13.672   8.651  22.056  0.00  0.00    +0.150 HD
BRANCH  13  17
ATOM     17  CA  VAL A   1      13.219  10.885  23.246  0.00  0.00    +0.145 C 
BRANCH  17  18
ATOM     18  CB  VAL A   1      12.531  12.189  22.795  0.00  0.00    +0.025 C 
ATOM     19  CG2 VAL A   1      11.527  12.637  23.850  0.00  0.00    +0.002 C 
ATOM     20  CG1 VAL A   1      11.835  11.972  21.460  0.00  0.00    +0.002 C 
ENDBRANCH  17  18
BRANCH  17  21
ATOM     21  N   VAL A   1      13.887  11.048  24.522  0.00  0.00    -0.238 NA
ATOM     22  H   VAL A   1      14.343  11.957  24.741  0.00  0.00    +0.142 HD
ENDBRANCH  17  21
ENDBRANCH  13  17
ENDBRANCH  11  15
ENDBRANCH   7  11
ENDBRANCH   6   9
BRANCH   6  23
ATOM     23  CB  ASP A   3      15.183   8.622  16.184  0.00  0.00    +0.143 C 
BRANCH  23  24
ATOM     24  CG  ASP A   3      14.725   7.937  14.913  0.00  0.00    +0.367 C 
ATOM     25  OD2 ASP A   3      15.242   6.842  14.603  0.00  0.00    -0.246 OA
ATOM     26  OD1 ASP A   3      13.850   8.498  14.221  0.00  0.00    -0.246 OA
ENDBRANCH  23  24
ENDBRANCH   6  23
ENDBRANCH   2   6
ENDBRANCH   1   3
BRANCH   1  27
ATOM     27  C   LEU A   4      17.939   4.394  15.840  0.00  0.00    +0.241 C 
ATOM     28  O   LEU A   4      19.024   3.825  15.807  0.00  0.00    -0.273 OA
ATOM     29  N   LEU A   5      17.461   5.092  14.817  0.00  0.00    -0.297 N 
ATOM     30  H   LEU A   5      16.541   5.569  14.907  0.00  0.00    +0.150 HD
BRANCH  29  31
ATOM     31  CA  LEU A   5      18.206   5.199  13.572  0.00  0.00    +0.149 C 
BRANCH  31  32
ATOM     32  C   LEU A   5      19.179   6.381  13.522  0.00  0.00    +0.241 C 
ATOM     33  N   GLU A   6      19.290   7.138  14.613  0.00  0.00    -0.297 N 
ATOM     34  H   GLU A   6      18.725   6.916  15.458  0.00  0.00    +0.150 HD
ATOM     35  O   LEU A   5      19.831   6.598  12.503  0.00  0.00    -0.273 OA
BRANCH  33  36
ATOM     36  CA  GLU A   6      20.204   8.281  14.626  0.00  0.00    +0.149 C 
BRANCH  36  37
ATOM     37  C   GLU A   6      20.890   8.561  15.963  0.00  0.00    +0.241 C 
ATOM     38  N   ASP A   7      20.138   8.462  17.054  0.00  0.00    -0.298 N 
ATOM     39  H   ASP A   7      19.140   8.185  16.957  0.00  0.00    +0.150 HD
ATOM     40  O   GLU A   6      22.084   8.872  16.001  0.00  0.00    -0.273 OA
BRANCH  38  41
ATOM     41  CA  ASP A   7      20.675   8.732  18.386  0.00  0.00    +0.148 C 
BRANCH  41  42
ATOM     42  C   ASP A   7      21.761   7.751  18.827  0.00  0.00    +0.227 C 
ATOM     43  O   ASP A   7      21.922   6.686  18.234  0.00  0.00    -0.286 OA
ENDBRANCH  41  42
BRANCH  41  44
ATOM     44  CB  ASP A   7      19.529   8.760  19.403  0.00  0.00    +0.142 C 
BRANCH  44  45
ATOM     45  CG  ASP A   7      18.742  10.067  19.360  0.00  0.00    +0.367 C 
ATOM     46  OD2 ASP A   7      19.204  11.062  19.966  0.00  0.00    -0.246 OA
ATOM     47  OD1 ASP A   7      17.672  10.106  18.715  0.00  0.00    -0.246 OA
ENDBRANCH  44  45
ENDBRANCH  41  44
ENDBRANCH  38  41
ENDBRANCH  36  37
BRANCH  36  48
ATOM     48  CB  GLU A   6      19.477   9.557  14.177  0.00  0.00    +0.041 C 
BRANCH  48  49
ATOM     49  CG  GLU A   6      18.811   9.475  12.809  0.00  0.00    +0.116 C 
BRANCH  49  50
ATOM     50  CD  GLU A   6      18.406  10.839  12.276  0.00  0.00    +0.365 C 
ATOM     51  OE2 GLU A   6      18.251  11.779  13.085  0.00  0.00    -0.246 OA
ATOM     52  OE1 GLU A   6      18.237  10.969  11.047  0.00  0.00    -0.246 OA
ENDBRANCH  49  50
ENDBRANCH  48  49
ENDBRANCH  36  48
ENDBRANCH  33  36
ENDBRANCH  31  32
BRANCH  31  53
ATOM     53  CB  LEU A   5      17.233   5.272  12.388  0.00  0.00    +0.029 C 
BRANCH  53  54
ATOM     54  CG  LEU A   5      16.269   4.090  12.237  0.00  0.00    +0.002 C 
ATOM     55  CD2 LEU A   5      17.037   2.788  12.282  0.00  0.00    +0.000 C 
ATOM     56  CD1 LEU A   5      15.513   4.210  10.928  0.00  0.00    +0.000 C 
ENDBRANCH  53  54
ENDBRANCH  31  53
ENDBRANCH  29  31
ENDBRANCH   1  27
BRANCH   1  57
ATOM     57  CB  LEU A   4      16.390   2.949  17.162  0.00  0.00    +0.029 C 
BRANCH  57  58
ATOM     58  CG  LEU A   4      15.864   2.504  18.539  0.00  0.00    +0.002 C 
ATOM     59  CD2 LEU A   4      17.027   2.418  19.514  0.00  0.00    +0.000 C 
ATOM     60  CD1 LEU A   4      15.158   1.148  18.434  0.00  0.00    +0.000 C 
ENDBRANCH  57  58
ENDBRANCH   1  57
TORSDOF 26
REMARK  Name = ../refined-set-2016/3lcu/3lcu_pocket.pdb
REMARK  229 active torsions:
REMARK  status: ('A' for Active; 'I' for Inactive)
REMARK    1  A    between atoms: _1  and  _3
REMARK    2  A    between atoms: _3  and  _4
REMARK    3  A    between atoms: _3  and  _6
REMARK    4  A    between atoms: _9  and  _11
REMARK    5  A    between atoms: _11  and  _12
REMARK    6  A    between atoms: _15  and  _17
REMARK    7  A    between atoms: _17  and  _18
REMARK    8  A    between atoms: _17  and  _20
REMARK    9  A    between atoms: _20  and  _21
REMARK   10  A    between atoms: _24  and  _26
REMARK   11  A    between atoms: _26  and  _27
REMARK   12  A    between atoms: _26  and  _29
REMARK   13  A    between atoms: _29  and  _30
REMARK   14  A    between atoms: _30  and  _31
REMARK   15  A    between atoms: _31  and  _32
REMARK   16  A    between atoms: _41  and  _43
REMARK   17  A    between atoms: _43  and  _44
REMARK   18  A    between atoms: _43  and  _46
REMARK   19  A    between atoms: _46  and  _47
REMARK   20  A    between atoms: _50  and  _52
REMARK   21  A    between atoms: _52  and  _53
REMARK   22  A    between atoms: _55  and  _57
REMARK   23  A    between atoms: _57  and  _58
REMARK   24  A    between atoms: _57  and  _60
REMARK   25  A    between atoms: _60  and  _61
REMARK   26  A    between atoms: _64  and  _66
REMARK   27  A    between atoms: _66  and  _67
REMARK   28  A    between atoms: _66  and  _69
REMARK   29  A    between atoms: _69  and  _70
REMARK   30  A    between atoms: _70  and  _71
REMARK   31  A    between atoms: _74  and  _76
REMARK   32  A    between atoms: _76  and  _77
REMARK   33  A    between atoms: _76  and  _79
REMARK   34  A    between atoms: _79  and  _80
REMARK   35  A    between atoms: _83  and  _85
REMARK   36  A    between atoms: _85  and  _86
REMARK   37  A    between atoms: _85  and  _88
REMARK   38  A    between atoms: _88  and  _89
REMARK   39  A    between atoms: _94  and  _95
REMARK   40  A    between atoms: _97  and  _99
REMARK   41  A    between atoms: _99  and  _100
REMARK   42  A    between atoms: _102  and  _104
REMARK   43  A    between atoms: _104  and  _105
REMARK   44  A    between atoms: _108  and  _110
REMARK   45  A    between atoms: _110  and  _111
REMARK   46  A    between atoms: _110  and  _113
REMARK   47  A    between atoms: _113  and  _114
REMARK   48  A    between atoms: _120  and  _122
REMARK   49  A    between atoms: _122  and  _123
REMARK   50  A    between atoms: _122  and  _125
REMARK   51  A    between atoms: _125  and  _126
REMARK   52  A    between atoms: _129  and  _131
REMARK   53  A    between atoms: _131  and  _132
REMARK   54  A    between atoms: _131  and  _134
REMARK   55  A    between atoms: _134  and  _135
REMARK   56  A    between atoms: _135  and  _136
REMARK   57  A    between atoms: _138  and  _140
REMARK   58  A    between atoms: _140  and  _141
REMARK   59  A    between atoms: _140  and  _143
REMARK   60  A    between atoms: _143  and  _144
REMARK   61  A    between atoms: _149  and  _151
REMARK   62  A    between atoms: _151  and  _152
REMARK   63  A    between atoms: _151  and  _154
REMARK   64  A    between atoms: _154  and  _155
REMARK   65  A    between atoms: _158  and  _160
REMARK   66  A    between atoms: _160  and  _161
REMARK   67  A    between atoms: _160  and  _163
REMARK   68  A    between atoms: _163  and  _164
REMARK   69  A    between atoms: _166  and  _168
REMARK   70  A    between atoms: _168  and  _169
REMARK   71  A    between atoms: _168  and  _171
REMARK   72  A    between atoms: _171  and  _172
REMARK   73  A    between atoms: _175  and  _177
REMARK   74  A    between atoms: _177  and  _178
REMARK   75  A    between atoms: _177  and  _180
REMARK   76  A    between atoms: _180  and  _181
REMARK   77  A    between atoms: _181  and  _182
REMARK   78  A    between atoms: _182  and  _183
REMARK   79  A    between atoms: _192  and  _194
REMARK   80  A    between atoms: _194  and  _195
REMARK   81  A    between atoms: _194  and  _197
REMARK   82  A    between atoms: _197  and  _198
REMARK   83  A    between atoms: _198  and  _199
REMARK   84  A    between atoms: _202  and  _204
REMARK   85  A    between atoms: _204  and  _205
REMARK   86  A    between atoms: _204  and  _207
REMARK   87  A    between atoms: _207  and  _208
REMARK   88  A    between atoms: _208  and  _209
REMARK   89  A    between atoms: _209  and  _210
REMARK   90  A    between atoms: _219  and  _221
REMARK   91  A    between atoms: _221  and  _222
REMARK   92  A    between atoms: _221  and  _224
REMARK   93  A    between atoms: _224  and  _225
REMARK   94  A    between atoms: _228  and  _230
REMARK   95  A    between atoms: _230  and  _231
REMARK   96  A    between atoms: _230  and  _233
REMARK   97  A    between atoms: _233  and  _234
REMARK   98  A    between atoms: _240  and  _242
REMARK   99  A    between atoms: _242  and  _243
REMARK  100  A    between atoms: _242  and  _245
REMARK  101  A    between atoms: _245  and  _246
REMARK  102  A    between atoms: _251  and  _252
REMARK  103  A    between atoms: _254  and  _256
REMARK  104  A    between atoms: _256  and  _257
REMARK  105  A    between atoms: _256  and  _259
REMARK  106  A    between atoms: _259  and  _260
REMARK  107  A    between atoms: _263  and  _265
REMARK  108  A    between atoms: _265  and  _266
REMARK  109  A    between atoms: _265  and  _268
REMARK  110  A    between atoms: _268  and  _269
REMARK  111  A    between atoms: _272  and  _274
REMARK  112  A    between atoms: _274  and  _275
REMARK  113  A    between atoms: _278  and  _280
REMARK  114  A    between atoms: _280  and  _281
REMARK  115  A    between atoms: _280  and  _283
REMARK  116  A    between atoms: _285  and  _287
REMARK  117  A    between atoms: _287  and  _288
REMARK  118  A    between atoms: _290  and  _292
REMARK  119  A    between atoms: _292  and  _293
REMARK  120  A    between atoms: _292  and  _295
REMARK  121  A    between atoms: _295  and  _296
REMARK  122  A    between atoms: _299  and  _301
REMARK  123  A    between atoms: _301  and  _302
REMARK  124  A    between atoms: _301  and  _304
REMARK  125  A    between atoms: _304  and  _305
REMARK  126  A    between atoms: _311  and  _312
REMARK  127  A    between atoms: _317  and  _319
REMARK  128  A    between atoms: _319  and  _320
REMARK  129  A    between atoms: _319  and  _322
REMARK  130  A    between atoms: _322  and  _323
REMARK  131  A    between atoms: _325  and  _327
REMARK  132  A    between atoms: _327  and  _328
REMARK  133  A    between atoms: _327  and  _330
REMARK  134  A    between atoms: _330  and  _331
REMARK  135  A    between atoms: _334  and  _336
REMARK  136  A    between atoms: _336  and  _337
REMARK  137  A    between atoms: _336  and  _339
REMARK  138  A    between atoms: _339  and  _340
REMARK  139  A    between atoms: _343  and  _345
REMARK  140  A    between atoms: _345  and  _346
REMARK  141  A    between atoms: _345  and  _348
REMARK  142  A    between atoms: _348  and  _349
REMARK  143  A    between atoms: _352  and  _354
REMARK  144  A    between atoms: _354  and  _355
REMARK  145  A    between atoms: _354  and  _357
REMARK  146  A    between atoms: _357  and  _358
REMARK  147  A    between atoms: _361  and  _363
REMARK  148  A    between atoms: _363  and  _364
REMARK  149  A    between atoms: _363  and  _366
REMARK  150  A    between atoms: _369  and  _371
REMARK  151  A    between atoms: _371  and  _372
REMARK  152  A    between atoms: _375  and  _377
REMARK  153  A    between atoms: _377  and  _378
REMARK  154  A    between atoms: _377  and  _380
REMARK  155  A    between atoms: _380  and  _381
REMARK  156  A    between atoms: _384  and  _386
REMARK  157  A    between atoms: _386  and  _387
REMARK  158  A    between atoms: _386  and  _389
REMARK  159  A    between atoms: _389  and  _390
REMARK  160  A    between atoms: _393  and  _395
REMARK  161  A    between atoms: _395  and  _396
REMARK  162  A    between atoms: _395  and  _398
REMARK  163  A    between atoms: _398  and  _399
REMARK  164  A    between atoms: _402  and  _404
REMARK  165  A    between atoms: _404  and  _405
REMARK  166  A    between atoms: _404  and  _407
REMARK  167  A    between atoms: _407  and  _408
REMARK  168  A    between atoms: _408  and  _409
REMARK  169  A    between atoms: _412  and  _414
REMARK  170  A    between atoms: _414  and  _415
REMARK  171  A    between atoms: _414  and  _417
REMARK  172  A    between atoms: _417  and  _418
REMARK  173  A    between atoms: _421  and  _423
REMARK  174  A    between atoms: _423  and  _424
REMARK  175  A    between atoms: _423  and  _426
REMARK  176  A    between atoms: _426  and  _427
REMARK  177  A    between atoms: _430  and  _432
REMARK  178  A    between atoms: _432  and  _433
REMARK  179  A    between atoms: _432  and  _435
REMARK  180  A    between atoms: _435  and  _436
REMARK  181  A    between atoms: _439  and  _441
REMARK  182  A    between atoms: _441  and  _442
REMARK  183  A    between atoms: _441  and  _444
REMARK  184  A    between atoms: _444  and  _445
REMARK  185  A    between atoms: _448  and  _450
REMARK  186  A    between atoms: _450  and  _451
REMARK  187  A    between atoms: _450  and  _453
REMARK  188  A    between atoms: _453  and  _454
REMARK  189  A    between atoms: _454  and  _455
REMARK  190  A    between atoms: _455  and  _456
REMARK  191  A    between atoms: _456  and  _457
REMARK  192  A    between atoms: _461  and  _463
REMARK  193  A    between atoms: _463  and  _464
REMARK  194  A    between atoms: _463  and  _466
REMARK  195  A    between atoms: _466  and  _467
REMARK  196  A    between atoms: _470  and  _472
REMARK  197  A    between atoms: _472  and  _473
REMARK  198  A    between atoms: _472  and  _475
REMARK  199  A    between atoms: _475  and  _476
REMARK  200  A    between atoms: _479  and  _481
REMARK  201  A    between atoms: _481  and  _482
REMARK  202  A    between atoms: _481  and  _484
REMARK  203  A    between atoms: _486  and  _488
REMARK  204  A    between atoms: _488  and  _489
REMARK  205  A    between atoms: _488  and  _491
REMARK  206  A    between atoms: _491  and  _492
REMARK  207  A    between atoms: _495  and  _497
REMARK  208  A    between atoms: _497  and  _498
REMARK  209  A    between atoms: _497  and  _500
REMARK  210  A    between atoms: _500  and  _501
REMARK  211  A    between atoms: _501  and  _502
REMARK  212  A    between atoms: _507  and  _509
REMARK  213  A    between atoms: _509  and  _510
REMARK  214  A    between atoms: _509  and  _512
REMARK  215  A    between atoms: _512  and  _513
REMARK  216  A    between atoms: _513  and  _514
REMARK  217  A    between atoms: _519  and  _521
REMARK  218  A    between atoms: _521  and  _522
REMARK  219  A    between atoms: _521  and  _524
REMARK  220  A    between atoms: _524  and  _525
REMARK  221  A    between atoms: _527  and  _529
REMARK  222  A    between atoms: _529  and  _530
REMARK  223  A    between atoms: _529  and  _532
REMARK  224  A    between atoms: _532  and  _533
REMARK  225  A    between atoms: _536  and  _538
REMARK  226  A    between atoms: _538  and  _539
REMARK  227  A    between atoms: _538  and  _541
REMARK  228  A    between atoms: _541  and  _542
REMARK  229  A    between atoms: _542  and  _543
REMARK                            x       y       z     vdW  Elec       q    Type
REMARK                         _______ _______ _______ _____ _____    ______ ____
ROOT
ATOM      1  C   LEU A   3       9.821  -5.209  21.060  0.00  0.00    +0.241 C 
ATOM      2  O   LEU A   3       9.460  -4.038  20.932  0.00  0.00    -0.273 OA
ATOM      3  N   LYS A   4       9.542  -6.169  20.179  0.00  0.00    -0.297 N 
ATOM      4  H   LYS A   4       9.910  -7.125  20.357  0.00  0.00    +0.150 HD
ENDROOT
BRANCH   3   5
ATOM      5  CA  LYS A   4       8.744  -5.944  18.975  0.00  0.00    +0.149 C 
BRANCH   5   6
ATOM      6  C   LYS A   4       9.100  -4.629  18.269  0.00  0.00    +0.241 C 
ATOM      7  N   THR A   5      10.386  -4.449  17.991  0.00  0.00    -0.295 N 
ATOM      8  H   THR A   5      11.070  -5.192  18.239  0.00  0.00    +0.150 HD
ATOM      9  O   LYS A   4       8.227  -3.808  17.967  0.00  0.00    -0.273 OA
BRANCH   7  10
ATOM     10  CA  THR A   5      10.858  -3.232  17.346  0.00  0.00    +0.176 C 
BRANCH  10  11
ATOM     11  C   THR A   5      11.530  -3.436  15.991  0.00  0.00    +0.243 C 
ATOM     12  N   LEU A   6      12.358  -4.471  15.879  0.00  0.00    -0.298 N 
ATOM     13  H   LEU A   6      12.489  -5.107  16.692  0.00  0.00    +0.150 HD
ATOM     14  O   THR A   5      11.297  -2.661  15.065  0.00  0.00    -0.273 OA
BRANCH  12  15
ATOM     15  CA  LEU A   6      13.090  -4.737  14.637  0.00  0.00    +0.137 C 
BRANCH  15  16
ATOM     16  C   LEU A   6      12.281  -4.661  13.357  0.00  0.00    +0.227 C 
ATOM     17  O   LEU A   6      12.720  -4.061  12.374  0.00  0.00    -0.286 OA
ENDBRANCH  15  16
BRANCH  15  18
ATOM     18  CB  LEU A   6      13.792  -6.089  14.703  0.00  0.00    +0.028 C 
BRANCH  18  19
ATOM     19  CG  LEU A   6      15.290  -5.940  14.959  0.00  0.00    +0.002 C 
ATOM     20  CD2 LEU A   6      15.522  -5.413  16.369  0.00  0.00    +0.000 C 
ATOM     21  CD1 LEU A   6      15.975  -7.273  14.758  0.00  0.00    +0.000 C 
ENDBRANCH  18  19
ENDBRANCH  15  18
ENDBRANCH  12  15
ENDBRANCH  10  11
BRANCH  10  22
ATOM     22  CB  THR A   5      11.859  -2.483  18.255  0.00  0.00    +0.137 C 
ATOM     23  CG2 THR A   5      12.301  -1.190  17.606  0.00  0.00    +0.034 C 
BRANCH  22  24
ATOM     24  OG1 THR A   5      11.237  -2.186  19.509  0.00  0.00    -0.382 OA
ATOM     25  HG1 THR A   5      10.961  -3.030  19.947  0.00  0.00    +0.210 HD
ENDBRANCH  22  24
ENDBRANCH  10  22
ENDBRANCH   7  10
ENDBRANCH   5   6
BRANCH   5  26
ATOM     26  CB  LYS A   4       7.255  -5.979  19.341  0.00  0.00    +0.029 C 
BRANCH  26  27
ATOM     27  CG  LYS A   4       6.869  -7.236  20.125  0.00  0.00    +0.000 C 
BRANCH  27  28
ATOM     28  CD  LYS A   4       5.357  -7.428  20.239  0.00  0.00    -0.024 C 
BRANCH  28  29
ATOM     29  CE  LYS A   4       4.714  -6.426  21.178  0.00  0.00    -0.086 C 
BRANCH  29  30
ATOM     30  NZ  LYS A   4       3.248  -6.689  21.348  0.00  0.00    +0.380 N 
ATOM     31  HZ1 LYS A   4       2.843  -5.984  21.997  0.00  0.00    -0.089 HD
ATOM     32  HZ2 LYS A   4       3.111  -7.642  21.741  0.00  0.00    -0.089 HD
ATOM     33  HZ3 LYS A   4       2.776  -6.623  20.424  0.00  0.00    -0.089 HD
ENDBRANCH  29  30
ENDBRANCH  28  29
ENDBRANCH  27  28
ENDBRANCH  26  27
ENDBRANCH   5  26
ENDBRANCH   3   5
BRANCH   1  34
ATOM     34  CA  LEU A   3      10.656  -5.636  22.254  0.00  0.00    +0.149 C 
BRANCH  34  36
ATOM     35  C   LEU A   2      12.980  -5.190  21.683  0.00  0.00    +0.241 C 
ATOM     36  N   LEU A   3      11.886  -4.869  22.363  0.00  0.00    -0.297 N 
ATOM     37  H   LEU A   3      11.910  -4.042  22.994  0.00  0.00    +0.150 HD
ATOM     38  O   LEU A   2      13.032  -6.139  20.908  0.00  0.00    -0.273 OA
BRANCH  35  39
ATOM     39  CA  LEU A   2      14.202  -4.318  21.944  0.00  0.00    +0.149 C 
BRANCH  39  42
ATOM     40  C   LEU A   1      14.869  -3.876  24.263  0.00  0.00    +0.238 C 
ATOM     41  O   LEU A   1      14.797  -2.651  24.136  0.00  0.00    -0.274 OA
ATOM     42  N   LEU A   2      14.638  -4.730  23.275  0.00  0.00    -0.297 N 
ATOM     43  H   LEU A   2      14.774  -5.745  23.458  0.00  0.00    +0.150 HD
BRANCH  40  44
ATOM     44  CA  LEU A   1      15.261  -4.504  25.595  0.00  0.00    +0.145 C 
BRANCH  44  45
ATOM     45  N   LEU A   1      16.458  -3.872  26.125  0.00  0.00    -0.238 NA
ATOM     46  H   LEU A   1      16.402  -2.909  26.513  0.00  0.00    +0.142 HD
ENDBRANCH  44  45
BRANCH  44  47
ATOM     47  CB  LEU A   1      14.094  -4.363  26.575  0.00  0.00    +0.026 C 
BRANCH  47  48
ATOM     48  CG  LEU A   1      14.303  -4.839  28.014  0.00  0.00    +0.002 C 
ATOM     49  CD2 LEU A   1      13.060  -4.480  28.841  0.00  0.00    +0.000 C 
ATOM     50  CD1 LEU A   1      14.564  -6.350  28.046  0.00  0.00    +0.000 C 
ENDBRANCH  47  48
ENDBRANCH  44  47
ENDBRANCH  40  44
ENDBRANCH  39  42
BRANCH  39  51
ATOM     51  CB  LEU A   2      15.290  -4.601  20.899  0.00  0.00    +0.029 C 
BRANCH  51  52
ATOM     52  CG  LEU A   2      16.368  -3.529  20.736  0.00  0.00    +0.002 C 
ATOM     53  CD2 LEU A   2      15.722  -2.231  20.258  0.00  0.00    +0.000 C 
ATOM     54  CD1 LEU A   2      17.423  -3.997  19.728  0.00  0.00    +0.000 C 
ENDBRANCH  51  52
ENDBRANCH  39  51
ENDBRANCH  35  39
ENDBRANCH  34  36
BRANCH  34  55
ATOM     55  CB  LEU A   3       9.842  -5.498  23.550  0.00  0.00    +0.029 C 
BRANCH  55  56
ATOM     56  CG  LEU A   3      10.593  -5.740  24.867  0.00  0.00    +0.002 C 
ATOM     57  CD2 LEU A   3       9.620  -5.746  26.054  0.00  0.00    +0.000 C 
ATOM     58  CD1 LEU A   3      11.328  -7.072  24.788  0.00  0.00    +0.000 C 
ENDBRANCH  55  56
ENDBRANCH  34  55
ENDBRANCH   1  34
TORSDOF 27
REMARK  Name = ../refined-set-2016/3lcu/3lcu_pocket.pdb
REMARK  229 active torsions:
REMARK  status: ('A' for Active; 'I' for Inactive)
REMARK    1  A    between atoms: _1  and  _3
REMARK    2  A    between atoms: _3  and  _4
REMARK    3  A    between atoms: _3  and  _6
REMARK    4  A    between atoms: _9  and  _11
REMARK    5  A    between atoms: _11  and  _12
REMARK    6  A    between atoms: _15  and  _17
REMARK    7  A    between atoms: _17  and  _18
REMARK    8  A    between atoms: _17  and  _20
REMARK    9  A    between atoms: _20  and  _21
REMARK   10  A    between atoms: _24  and  _26
REMARK   11  A    between atoms: _26  and  _27
REMARK   12  A    between atoms: _26  and  _29
REMARK   13  A    between atoms: _29  and  _30
REMARK   14  A    between atoms: _30  and  _31
REMARK   15  A    between atoms: _31  and  _32
REMARK   16  A    between atoms: _41  and  _43
REMARK   17  A    between atoms: _43  and  _44
REMARK   18  A    between atoms: _43  and  _46
REMARK   19  A    between atoms: _46  and  _47
REMARK   20  A    between atoms: _50  and  _52
REMARK   21  A    between atoms: _52  and  _53
REMARK   22  A    between atoms: _55  and  _57
REMARK   23  A    between atoms: _57  and  _58
REMARK   24  A    between atoms: _57  and  _60
REMARK   25  A    between atoms: _60  and  _61
REMARK   26  A    between atoms: _64  and  _66
REMARK   27  A    between atoms: _66  and  _67
REMARK   28  A    between atoms: _66  and  _69
REMARK   29  A    between atoms: _69  and  _70
REMARK   30  A    between atoms: _70  and  _71
REMARK   31  A    between atoms: _74  and  _76
REMARK   32  A    between atoms: _76  and  _77
REMARK   33  A    between atoms: _76  and  _79
REMARK   34  A    between atoms: _79  and  _80
REMARK   35  A    between atoms: _83  and  _85
REMARK   36  A    between atoms: _85  and  _86
REMARK   37  A    between atoms: _85  and  _88
REMARK   38  A    between atoms: _88  and  _89
REMARK   39  A    between atoms: _94  and  _95
REMARK   40  A    between atoms: _97  and  _99
REMARK   41  A    between atoms: _99  and  _100
REMARK   42  A    between atoms: _102  and  _104
REMARK   43  A    between atoms: _104  and  _105
REMARK   44  A    between atoms: _108  and  _110
REMARK   45  A    between atoms: _110  and  _111
REMARK   46  A    between atoms: _110  and  _113
REMARK   47  A    between atoms: _113  and  _114
REMARK   48  A    between atoms: _120  and  _122
REMARK   49  A    between atoms: _122  and  _123
REMARK   50  A    between atoms: _122  and  _125
REMARK   51  A    between atoms: _125  and  _126
REMARK   52  A    between atoms: _129  and  _131
REMARK   53  A    between atoms: _131  and  _132
REMARK   54  A    between atoms: _131  and  _134
REMARK   55  A    between atoms: _134  and  _135
REMARK   56  A    between atoms: _135  and  _136
REMARK   57  A    between atoms: _138  and  _140
REMARK   58  A    between atoms: _140  and  _141
REMARK   59  A    between atoms: _140  and  _143
REMARK   60  A    between atoms: _143  and  _144
REMARK   61  A    between atoms: _149  and  _151
REMARK   62  A    between atoms: _151  and  _152
REMARK   63  A    between atoms: _151  and  _154
REMARK   64  A    between atoms: _154  and  _155
REMARK   65  A    between atoms: _158  and  _160
REMARK   66  A    between atoms: _160  and  _161
REMARK   67  A    between atoms: _160  and  _163
REMARK   68  A    between atoms: _163  and  _164
REMARK   69  A    between atoms: _166  and  _168
REMARK   70  A    between atoms: _168  and  _169
REMARK   71  A    between atoms: _168  and  _171
REMARK   72  A    between atoms: _171  and  _172
REMARK   73  A    between atoms: _175  and  _177
REMARK   74  A    between atoms: _177  and  _178
REMARK   75  A    between atoms: _177  and  _180
REMARK   76  A    between atoms: _180  and  _181
REMARK   77  A    between atoms: _181  and  _182
REMARK   78  A    between atoms: _182  and  _183
REMARK   79  A    between atoms: _192  and  _194
REMARK   80  A    between atoms: _194  and  _195
REMARK   81  A    between atoms: _194  and  _197
REMARK   82  A    between atoms: _197  and  _198
REMARK   83  A    between atoms: _198  and  _199
REMARK   84  A    between atoms: _202  and  _204
REMARK   85  A    between atoms: _204  and  _205
REMARK   86  A    between atoms: _204  and  _207
REMARK   87  A    between atoms: _207  and  _208
REMARK   88  A    between atoms: _208  and  _209
REMARK   89  A    between atoms: _209  and  _210
REMARK   90  A    between atoms: _219  and  _221
REMARK   91  A    between atoms: _221  and  _222
REMARK   92  A    between atoms: _221  and  _224
REMARK   93  A    between atoms: _224  and  _225
REMARK   94  A    between atoms: _228  and  _230
REMARK   95  A    between atoms: _230  and  _231
REMARK   96  A    between atoms: _230  and  _233
REMARK   97  A    between atoms: _233  and  _234
REMARK   98  A    between atoms: _240  and  _242
REMARK   99  A    between atoms: _242  and  _243
REMARK  100  A    between atoms: _242  and  _245
REMARK  101  A    between atoms: _245  and  _246
REMARK  102  A    between atoms: _251  and  _252
REMARK  103  A    between atoms: _254  and  _256
REMARK  104  A    between atoms: _256  and  _257
REMARK  105  A    between atoms: _256  and  _259
REMARK  106  A    between atoms: _259  and  _260
REMARK  107  A    between atoms: _263  and  _265
REMARK  108  A    between atoms: _265  and  _266
REMARK  109  A    between atoms: _265  and  _268
REMARK  110  A    between atoms: _268  and  _269
REMARK  111  A    between atoms: _272  and  _274
REMARK  112  A    between atoms: _274  and  _275
REMARK  113  A    between atoms: _278  and  _280
REMARK  114  A    between atoms: _280  and  _281
REMARK  115  A    between atoms: _280  and  _283
REMARK  116  A    between atoms: _285  and  _287
REMARK  117  A    between atoms: _287  and  _288
REMARK  118  A    between atoms: _290  and  _292
REMARK  119  A    between atoms: _292  and  _293
REMARK  120  A    between atoms: _292  and  _295
REMARK  121  A    between atoms: _295  and  _296
REMARK  122  A    between atoms: _299  and  _301
REMARK  123  A    between atoms: _301  and  _302
REMARK  124  A    between atoms: _301  and  _304
REMARK  125  A    between atoms: _304  and  _305
REMARK  126  A    between atoms: _311  and  _312
REMARK  127  A    between atoms: _317  and  _319
REMARK  128  A    between atoms: _319  and  _320
REMARK  129  A    between atoms: _319  and  _322
REMARK  130  A    between atoms: _322  and  _323
REMARK  131  A    between atoms: _325  and  _327
REMARK  132  A    between atoms: _327  and  _328
REMARK  133  A    between atoms: _327  and  _330
REMARK  134  A    between atoms: _330  and  _331
REMARK  135  A    between atoms: _334  and  _336
REMARK  136  A    between atoms: _336  and  _337
REMARK  137  A    between atoms: _336  and  _339
REMARK  138  A    between atoms: _339  and  _340
REMARK  139  A    between atoms: _343  and  _345
REMARK  140  A    between atoms: _345  and  _346
REMARK  141  A    between atoms: _345  and  _348
REMARK  142  A    between atoms: _348  and  _349
REMARK  143  A    between atoms: _352  and  _354
REMARK  144  A    between atoms: _354  and  _355
REMARK  145  A    between atoms: _354  and  _357
REMARK  146  A    between atoms: _357  and  _358
REMARK  147  A    between atoms: _361  and  _363
REMARK  148  A    between atoms: _363  and  _364
REMARK  149  A    between atoms: _363  and  _366
REMARK  150  A    between atoms: _369  and  _371
REMARK  151  A    between atoms: _371  and  _372
REMARK  152  A    between atoms: _375  and  _377
REMARK  153  A    between atoms: _377  and  _378
REMARK  154  A    between atoms: _377  and  _380
REMARK  155  A    between atoms: _380  and  _381
REMARK  156  A    between atoms: _384  and  _386
REMARK  157  A    between atoms: _386  and  _387
REMARK  158  A    between atoms: _386  and  _389
REMARK  159  A    between atoms: _389  and  _390
REMARK  160  A    between atoms: _393  and  _395
REMARK  161  A    between atoms: _395  and  _396
REMARK  162  A    between atoms: _395  and  _398
REMARK  163  A    between atoms: _398  and  _399
REMARK  164  A    between atoms: _402  and  _404
REMARK  165  A    between atoms: _404  and  _405
REMARK  166  A    between atoms: _404  and  _407
REMARK  167  A    between atoms: _407  and  _408
REMARK  168  A    between atoms: _408  and  _409
REMARK  169  A    between atoms: _412  and  _414
REMARK  170  A    between atoms: _414  and  _415
REMARK  171  A    between atoms: _414  and  _417
REMARK  172  A    between atoms: _417  and  _418
REMARK  173  A    between atoms: _421  and  _423
REMARK  174  A    between atoms: _423  and  _424
REMARK  175  A    between atoms: _423  and  _426
REMARK  176  A    between atoms: _426  and  _427
REMARK  177  A    between atoms: _430  and  _432
REMARK  178  A    between atoms: _432  and  _433
REMARK  179  A    between atoms: _432  and  _435
REMARK  180  A    between atoms: _435  and  _436
REMARK  181  A    between atoms: _439  and  _441
REMARK  182  A    between atoms: _441  and  _442
REMARK  183  A    between atoms: _441  and  _444
REMARK  184  A    between atoms: _444  and  _445
REMARK  185  A    between atoms: _448  and  _450
REMARK  186  A    between atoms: _450  and  _451
REMARK  187  A    between atoms: _450  and  _453
REMARK  188  A    between atoms: _453  and  _454
REMARK  189  A    between atoms: _454  and  _455
REMARK  190  A    between atoms: _455  and  _456
REMARK  191  A    between atoms: _456  and  _457
REMARK  192  A    between atoms: _461  and  _463
REMARK  193  A    between atoms: _463  and  _464
REMARK  194  A    between atoms: _463  and  _466
REMARK  195  A    between atoms: _466  and  _467
REMARK  196  A    between atoms: _470  and  _472
REMARK  197  A    between atoms: _472  and  _473
REMARK  198  A    between atoms: _472  and  _475
REMARK  199  A    between atoms: _475  and  _476
REMARK  200  A    between atoms: _479  and  _481
REMARK  201  A    between atoms: _481  and  _482
REMARK  202  A    between atoms: _481  and  _484
REMARK  203  A    between atoms: _486  and  _488
REMARK  204  A    between atoms: _488  and  _489
REMARK  205  A    between atoms: _488  and  _491
REMARK  206  A    between atoms: _491  and  _492
REMARK  207  A    between atoms: _495  and  _497
REMARK  208  A    between atoms: _497  and  _498
REMARK  209  A    between atoms: _497  and  _500
REMARK  210  A    between atoms: _500  and  _501
REMARK  211  A    between atoms: _501  and  _502
REMARK  212  A    between atoms: _507  and  _509
REMARK  213  A    between atoms: _509  and  _510
REMARK  214  A    between atoms: _509  and  _512
REMARK  215  A    between atoms: _512  and  _513
REMARK  216  A    between atoms: _513  and  _514
REMARK  217  A    between atoms: _519  and  _521
REMARK  218  A    between atoms: _521  and  _522
REMARK  219  A    between atoms: _521  and  _524
REMARK  220  A    between atoms: _524  and  _525
REMARK  221  A    between atoms: _527  and  _529
REMARK  222  A    between atoms: _529  and  _530
REMARK  223  A    between atoms: _529  and  _532
REMARK  224  A    between atoms: _532  and  _533
REMARK  225  A    between atoms: _536  and  _538
REMARK  226  A    between atoms: _538  and  _539
REMARK  227  A    between atoms: _538  and  _541
REMARK  228  A    between atoms: _541  and  _542
REMARK  229  A    between atoms: _542  and  _543
REMARK                            x       y       z     vdW  Elec       q    Type
REMARK                         _______ _______ _______ _____ _____    ______ ____
ROOT
ATOM      1  C   CYS A   1      10.690  -0.821  11.895  0.00  0.00    +0.239 C 
ATOM      2  N   LEU A   2      11.853  -1.114  12.475  0.00  0.00    -0.298 N 
ATOM      3  H   LEU A   2      11.877  -1.803  13.253  0.00  0.00    +0.150 HD
ATOM      4  O   CYS A   1      10.583  -0.002  10.974  0.00  0.00    -0.274 OA
ENDROOT
BRANCH   1   5
ATOM      5  CA  CYS A   1       9.458  -1.555  12.423  0.00  0.00    +0.156 C 
BRANCH   5   6
ATOM      6  N   CYS A   1       9.753  -2.954  12.686  0.00  0.00    -0.237 NA
ATOM      7  H   CYS A   1       9.776  -3.292  13.669  0.00  0.00    +0.142 HD
ENDBRANCH   5   6
BRANCH   5   8
ATOM      8  CB  CYS A   1       8.952  -0.877  13.695  0.00  0.00    +0.095 C 
ATOM      9  SG  CYS A   1       8.004   0.607  13.369  0.00  0.00    -0.080 S 
ENDBRANCH   5   8
ENDBRANCH   1   5
BRANCH   2  10
ATOM     10  CA  LEU A   2      13.099  -0.481  12.034  0.00  0.00    +0.137 C 
BRANCH  10  11
ATOM     11  C   LEU A   2      13.438  -0.920  10.605  0.00  0.00    +0.227 C 
ATOM     12  O   LEU A   2      13.827  -0.104   9.772  0.00  0.00    -0.286 OA
ENDBRANCH  10  11
BRANCH  10  13
ATOM     13  CB  LEU A   2      14.253  -0.844  12.976  0.00  0.00    +0.028 C 
BRANCH  13  14
ATOM     14  CG  LEU A   2      14.198  -0.301  14.413  0.00  0.00    +0.002 C 
ATOM     15  CD2 LEU A   2      15.404  -0.805  15.177  0.00  0.00    +0.000 C 
ATOM     16  CD1 LEU A   2      14.183   1.229  14.410  0.00  0.00    +0.000 C 
ENDBRANCH  13  14
ENDBRANCH  10  13
ENDBRANCH   2  10
TORSDOF 7
REMARK  Name = ../refined-set-2016/3lcu/3lcu_pocket.pdb
REMARK  229 active torsions:
REMARK  status: ('A' for Active; 'I' for Inactive)
REMARK    1  A    between atoms: _1  and  _3
REMARK    2  A    between atoms: _3  and  _4
REMARK    3  A    between atoms: _3  and  _6
REMARK    4  A    between atoms: _9  and  _11
REMARK    5  A    between atoms: _11  and  _12
REMARK    6  A    between atoms: _15  and  _17
REMARK    7  A    between atoms: _17  and  _18
REMARK    8  A    between atoms: _17  and  _20
REMARK    9  A    between atoms: _20  and  _21
REMARK   10  A    between atoms: _24  and  _26
REMARK   11  A    between atoms: _26  and  _27
REMARK   12  A    between atoms: _26  and  _29
REMARK   13  A    between atoms: _29  and  _30
REMARK   14  A    between atoms: _30  and  _31
REMARK   15  A    between atoms: _31  and  _32
REMARK   16  A    between atoms: _41  and  _43
REMARK   17  A    between atoms: _43  and  _44
REMARK   18  A    between atoms: _43  and  _46
REMARK   19  A    between atoms: _46  and  _47
REMARK   20  A    between atoms: _50  and  _52
REMARK   21  A    between atoms: _52  and  _53
REMARK   22  A    between atoms: _55  and  _57
REMARK   23  A    between atoms: _57  and  _58
REMARK   24  A    between atoms: _57  and  _60
REMARK   25  A    between atoms: _60  and  _61
REMARK   26  A    between atoms: _64  and  _66
REMARK   27  A    between atoms: _66  and  _67
REMARK   28  A    between atoms: _66  and  _69
REMARK   29  A    between atoms: _69  and  _70
REMARK   30  A    between atoms: _70  and  _71
REMARK   31  A    between atoms: _74  and  _76
REMARK   32  A    between atoms: _76  and  _77
REMARK   33  A    between atoms: _76  and  _79
REMARK   34  A    between atoms: _79  and  _80
REMARK   35  A    between atoms: _83  and  _85
REMARK   36  A    between atoms: _85  and  _86
REMARK   37  A    between atoms: _85  and  _88
REMARK   38  A    between atoms: _88  and  _89
REMARK   39  A    between atoms: _94  and  _95
REMARK   40  A    between atoms: _97  and  _99
REMARK   41  A    between atoms: _99  and  _100
REMARK   42  A    between atoms: _102  and  _104
REMARK   43  A    between atoms: _104  and  _105
REMARK   44  A    between atoms: _108  and  _110
REMARK   45  A    between atoms: _110  and  _111
REMARK   46  A    between atoms: _110  and  _113
REMARK   47  A    between atoms: _113  and  _114
REMARK   48  A    between atoms: _120  and  _122
REMARK   49  A    between atoms: _122  and  _123
REMARK   50  A    between atoms: _122  and  _125
REMARK   51  A    between atoms: _125  and  _126
REMARK   52  A    between atoms: _129  and  _131
REMARK   53  A    between atoms: _131  and  _132
REMARK   54  A    between atoms: _131  and  _134
REMARK   55  A    between atoms: _134  and  _135
REMARK   56  A    between atoms: _135  and  _136
REMARK   57  A    between atoms: _138  and  _140
REMARK   58  A    between atoms: _140  and  _141
REMARK   59  A    between atoms: _140  and  _143
REMARK   60  A    between atoms: _143  and  _144
REMARK   61  A    between atoms: _149  and  _151
REMARK   62  A    between atoms: _151  and  _152
REMARK   63  A    between atoms: _151  and  _154
REMARK   64  A    between atoms: _154  and  _155
REMARK   65  A    between atoms: _158  and  _160
REMARK   66  A    between atoms: _160  and  _161
REMARK   67  A    between atoms: _160  and  _163
REMARK   68  A    between atoms: _163  and  _164
REMARK   69  A    between atoms: _166  and  _168
REMARK   70  A    between atoms: _168  and  _169
REMARK   71  A    between atoms: _168  and  _171
REMARK   72  A    between atoms: _171  and  _172
REMARK   73  A    between atoms: _175  and  _177
REMARK   74  A    between atoms: _177  and  _178
REMARK   75  A    between atoms: _177  and  _180
REMARK   76  A    between atoms: _180  and  _181
REMARK   77  A    between atoms: _181  and  _182
REMARK   78  A    between atoms: _182  and  _183
REMARK   79  A    between atoms: _192  and  _194
REMARK   80  A    between atoms: _194  and  _195
REMARK   81  A    between atoms: _194  and  _197
REMARK   82  A    between atoms: _197  and  _198
REMARK   83  A    between atoms: _198  and  _199
REMARK   84  A    between atoms: _202  and  _204
REMARK   85  A    between atoms: _204  and  _205
REMARK   86  A    between atoms: _204  and  _207
REMARK   87  A    between atoms: _207  and  _208
REMARK   88  A    between atoms: _208  and  _209
REMARK   89  A    between atoms: _209  and  _210
REMARK   90  A    between atoms: _219  and  _221
REMARK   91  A    between atoms: _221  and  _222
REMARK   92  A    between atoms: _221  and  _224
REMARK   93  A    between atoms: _224  and  _225
REMARK   94  A    between atoms: _228  and  _230
REMARK   95  A    between atoms: _230  and  _231
REMARK   96  A    between atoms: _230  and  _233
REMARK   97  A    between atoms: _233  and  _234
REMARK   98  A    between atoms: _240  and  _242
REMARK   99  A    between atoms: _242  and  _243
REMARK  100  A    between atoms: _242  and  _245
REMARK  101  A    between atoms: _245  and  _246
REMARK  102  A    between atoms: _251  and  _252
REMARK  103  A    between atoms: _254  and  _256
REMARK  104  A    between atoms: _256  and  _257
REMARK  105  A    between atoms: _256  and  _259
REMARK  106  A    between atoms: _259  and  _260
REMARK  107  A    between atoms: _263  and  _265
REMARK  108  A    between atoms: _265  and  _266
REMARK  109  A    between atoms: _265  and  _268
REMARK  110  A    between atoms: _268  and  _269
REMARK  111  A    between atoms: _272  and  _274
REMARK  112  A    between atoms: _274  and  _275
REMARK  113  A    between atoms: _278  and  _280
REMARK  114  A    between atoms: _280  and  _281
REMARK  115  A    between atoms: _280  and  _283
REMARK  116  A    between atoms: _285  and  _287
REMARK  117  A    between atoms: _287  and  _288
REMARK  118  A    between atoms: _290  and  _292
REMARK  119  A    between atoms: _292  and  _293
REMARK  120  A    between atoms: _292  and  _295
REMARK  121  A    between atoms: _295  and  _296
REMARK  122  A    between atoms: _299  and  _301
REMARK  123  A    between atoms: _301  and  _302
REMARK  124  A    between atoms: _301  and  _304
REMARK  125  A    between atoms: _304  and  _305
REMARK  126  A    between atoms: _311  and  _312
REMARK  127  A    between atoms: _317  and  _319
REMARK  128  A    between atoms: _319  and  _320
REMARK  129  A    between atoms: _319  and  _322
REMARK  130  A    between atoms: _322  and  _323
REMARK  131  A    between atoms: _325  and  _327
REMARK  132  A    between atoms: _327  and  _328
REMARK  133  A    between atoms: _327  and  _330
REMARK  134  A    between atoms: _330  and  _331
REMARK  135  A    between atoms: _334  and  _336
REMARK  136  A    between atoms: _336  and  _337
REMARK  137  A    between atoms: _336  and  _339
REMARK  138  A    between atoms: _339  and  _340
REMARK  139  A    between atoms: _343  and  _345
REMARK  140  A    between atoms: _345  and  _346
REMARK  141  A    between atoms: _345  and  _348
REMARK  142  A    between atoms: _348  and  _349
REMARK  143  A    between atoms: _352  and  _354
REMARK  144  A    between atoms: _354  and  _355
REMARK  145  A    between atoms: _354  and  _357
REMARK  146  A    between atoms: _357  and  _358
REMARK  147  A    between atoms: _361  and  _363
REMARK  148  A    between atoms: _363  and  _364
REMARK  149  A    between atoms: _363  and  _366
REMARK  150  A    between atoms: _369  and  _371
REMARK  151  A    between atoms: _371  and  _372
REMARK  152  A    between atoms: _375  and  _377
REMARK  153  A    between atoms: _377  and  _378
REMARK  154  A    between atoms: _377  and  _380
REMARK  155  A    between atoms: _380  and  _381
REMARK  156  A    between atoms: _384  and  _386
REMARK  157  A    between atoms: _386  and  _387
REMARK  158  A    between atoms: _386  and  _389
REMARK  159  A    between atoms: _389  and  _390
REMARK  160  A    between atoms: _393  and  _395
REMARK  161  A    between atoms: _395  and  _396
REMARK  162  A    between atoms: _395  and  _398
REMARK  163  A    between atoms: _398  and  _399
REMARK  164  A    between atoms: _402  and  _404
REMARK  165  A    between atoms: _404  and  _405
REMARK  166  A    between atoms: _404  and  _407
REMARK  167  A    between atoms: _407  and  _408
REMARK  168  A    between atoms: _408  and  _409
REMARK  169  A    between atoms: _412  and  _414
REMARK  170  A    between atoms: _414  and  _415
REMARK  171  A    between atoms: _414  and  _417
REMARK  172  A    between atoms: _417  and  _418
REMARK  173  A    between atoms: _421  and  _423
REMARK  174  A    between atoms: _423  and  _424
REMARK  175  A    between atoms: _423  and  _426
REMARK  176  A    between atoms: _426  and  _427
REMARK  177  A    between atoms: _430  and  _432
REMARK  178  A    between atoms: _432  and  _433
REMARK  179  A    between atoms: _432  and  _435
REMARK  180  A    between atoms: _435  and  _436
REMARK  181  A    between atoms: _439  and  _441
REMARK  182  A    between atoms: _441  and  _442
REMARK  183  A    between atoms: _441  and  _444
REMARK  184  A    between atoms: _444  and  _445
REMARK  185  A    between atoms: _448  and  _450
REMARK  186  A    between atoms: _450  and  _451
REMARK  187  A    between atoms: _450  and  _453
REMARK  188  A    between atoms: _453  and  _454
REMARK  189  A    between atoms: _454  and  _455
REMARK  190  A    between atoms: _455  and  _456
REMARK  191  A    between atoms: _456  and  _457
REMARK  192  A    between atoms: _461  and  _463
REMARK  193  A    between atoms: _463  and  _464
REMARK  194  A    between atoms: _463  and  _466
REMARK  195  A    between atoms: _466  and  _467
REMARK  196  A    between atoms: _470  and  _472
REMARK  197  A    between atoms: _472  and  _473
REMARK  198  A    between atoms: _472  and  _475
REMARK  199  A    between atoms: _475  and  _476
REMARK  200  A    between atoms: _479  and  _481
REMARK  201  A    between atoms: _481  and  _482
REMARK  202  A    between atoms: _481  and  _484
REMARK  203  A    between atoms: _486  and  _488
REMARK  204  A    between atoms: _488  and  _489
REMARK  205  A    between atoms: _488  and  _491
REMARK  206  A    between atoms: _491  and  _492
REMARK  207  A    between atoms: _495  and  _497
REMARK  208  A    between atoms: _497  and  _498
REMARK  209  A    between atoms: _497  and  _500
REMARK  210  A    between atoms: _500  and  _501
REMARK  211  A    between atoms: _501  and  _502
REMARK  212  A    between atoms: _507  and  _509
REMARK  213  A    between atoms: _509  and  _510
REMARK  214  A    between atoms: _509  and  _512
REMARK  215  A    between atoms: _512  and  _513
REMARK  216  A    between atoms: _513  and  _514
REMARK  217  A    between atoms: _519  and  _521
REMARK  218  A    between atoms: _521  and  _522
REMARK  219  A    between atoms: _521  and  _524
REMARK  220  A    between atoms: _524  and  _525
REMARK  221  A    between atoms: _527  and  _529
REMARK  222  A    between atoms: _529  and  _530
REMARK  223  A    between atoms: _529  and  _532
REMARK  224  A    between atoms: _532  and  _533
REMARK  225  A    between atoms: _536  and  _538
REMARK  226  A    between atoms: _538  and  _539
REMARK  227  A    between atoms: _538  and  _541
REMARK  228  A    between atoms: _541  and  _542
REMARK  229  A    between atoms: _542  and  _543
REMARK                            x       y       z     vdW  Elec       q    Type
REMARK                         _______ _______ _______ _____ _____    ______ ____
ROOT
ATOM      1  C   GLN A   1      13.485   2.419   7.323  0.00  0.00    +0.238 C 
ATOM      2  N   GLN A   2      14.318   1.420   7.603  0.00  0.00    -0.298 N 
ATOM      3  H   GLN A   2      14.002   0.654   8.232  0.00  0.00    +0.150 HD
ATOM      4  O   GLN A   1      13.783   3.345   6.572  0.00  0.00    -0.274 OA
ENDROOT
BRANCH   1   5
ATOM      5  CA  GLN A   1      12.115   2.374   7.996  0.00  0.00    +0.145 C 
BRANCH   5   6
ATOM      6  N   GLN A   1      11.607   1.012   8.131  0.00  0.00    -0.238 NA
ATOM      7  H   GLN A   1      11.675   0.540   9.055  0.00  0.00    +0.142 HD
ENDBRANCH   5   6
BRANCH   5   8
ATOM      8  CB  GLN A   1      12.230   3.036   9.375  0.00  0.00    +0.036 C 
BRANCH   8   9
ATOM      9  CG  GLN A   1      10.979   2.939  10.219  0.00  0.00    +0.087 C 
BRANCH   9  10
ATOM     10  CD  GLN A   1      11.161   3.503  11.620  0.00  0.00    +0.219 C 
ATOM     11  OE1 GLN A   1      10.625   2.965  12.591  0.00  0.00    -0.275 OA
ATOM     12  NE2 GLN A   1      11.903   4.594  11.729  0.00  0.00    -0.329 N 
ATOM     13 HE21 GLN A   1      12.052   5.030  12.661  0.00  0.00    +0.145 HD
ATOM     14 HE22 GLN A   1      12.337   5.015  10.882  0.00  0.00    +0.145 HD
ENDBRANCH   9  10
ENDBRANCH   8   9
ENDBRANCH   5   8
ENDBRANCH   1   5
BRANCH   2  15
ATOM     15  CA  GLN A   2      15.662   1.377   7.047  0.00  0.00    +0.137 C 
BRANCH  15  16
ATOM     16  C   GLN A   2      16.183  -0.057   7.016  0.00  0.00    +0.227 C 
ATOM     17  O   GLN A   2      16.503  -0.638   8.054  0.00  0.00    -0.286 OA
ENDBRANCH  15  16
BRANCH  15  18
ATOM     18  CB  GLN A   2      16.577   2.260   7.896  0.00  0.00    +0.037 C 
BRANCH  18  19
ATOM     19  CG  GLN A   2      17.994   2.399   7.388  0.00  0.00    +0.087 C 
BRANCH  19  20
ATOM     20  CD  GLN A   2      18.838   3.263   8.294  0.00  0.00    +0.219 C 
ATOM     21  NE2 GLN A   2      19.974   2.734   8.727  0.00  0.00    -0.329 N 
ATOM     22 HE21 GLN A   2      20.598   3.283   9.352  0.00  0.00    +0.145 HD
ATOM     23 HE22 GLN A   2      20.241   1.770   8.442  0.00  0.00    +0.145 HD
ATOM     24  OE1 GLN A   2      18.475   4.398   8.601  0.00  0.00    -0.275 OA
ENDBRANCH  19  20
ENDBRANCH  18  19
ENDBRANCH  15  18
ENDBRANCH   2  15
TORSDOF 10
REMARK  Name = ../refined-set-2016/3lcu/3lcu_pocket.pdb
REMARK  229 active torsions:
REMARK  status: ('A' for Active; 'I' for Inactive)
REMARK    1  A    between atoms: _1  and  _3
REMARK    2  A    between atoms: _3  and  _4
REMARK    3  A    between atoms: _3  and  _6
REMARK    4  A    between atoms: _9  and  _11
REMARK    5  A    between atoms: _11  and  _12
REMARK    6  A    between atoms: _15  and  _17
REMARK    7  A    between atoms: _17  and  _18
REMARK    8  A    between atoms: _17  and  _20
REMARK    9  A    between atoms: _20  and  _21
REMARK   10  A    between atoms: _24  and  _26
REMARK   11  A    between atoms: _26  and  _27
REMARK   12  A    between atoms: _26  and  _29
REMARK   13  A    between atoms: _29  and  _30
REMARK   14  A    between atoms: _30  and  _31
REMARK   15  A    between atoms: _31  and  _32
REMARK   16  A    between atoms: _41  and  _43
REMARK   17  A    between atoms: _43  and  _44
REMARK   18  A    between atoms: _43  and  _46
REMARK   19  A    between atoms: _46  and  _47
REMARK   20  A    between atoms: _50  and  _52
REMARK   21  A    between atoms: _52  and  _53
REMARK   22  A    between atoms: _55  and  _57
REMARK   23  A    between atoms: _57  and  _58
REMARK   24  A    between atoms: _57  and  _60
REMARK   25  A    between atoms: _60  and  _61
REMARK   26  A    between atoms: _64  and  _66
REMARK   27  A    between atoms: _66  and  _67
REMARK   28  A    between atoms: _66  and  _69
REMARK   29  A    between atoms: _69  and  _70
REMARK   30  A    between atoms: _70  and  _71
REMARK   31  A    between atoms: _74  and  _76
REMARK   32  A    between atoms: _76  and  _77
REMARK   33  A    between atoms: _76  and  _79
REMARK   34  A    between atoms: _79  and  _80
REMARK   35  A    between atoms: _83  and  _85
REMARK   36  A    between atoms: _85  and  _86
REMARK   37  A    between atoms: _85  and  _88
REMARK   38  A    between atoms: _88  and  _89
REMARK   39  A    between atoms: _94  and  _95
REMARK   40  A    between atoms: _97  and  _99
REMARK   41  A    between atoms: _99  and  _100
REMARK   42  A    between atoms: _102  and  _104
REMARK   43  A    between atoms: _104  and  _105
REMARK   44  A    between atoms: _108  and  _110
REMARK   45  A    between atoms: _110  and  _111
REMARK   46  A    between atoms: _110  and  _113
REMARK   47  A    between atoms: _113  and  _114
REMARK   48  A    between atoms: _120  and  _122
REMARK   49  A    between atoms: _122  and  _123
REMARK   50  A    between atoms: _122  and  _125
REMARK   51  A    between atoms: _125  and  _126
REMARK   52  A    between atoms: _129  and  _131
REMARK   53  A    between atoms: _131  and  _132
REMARK   54  A    between atoms: _131  and  _134
REMARK   55  A    between atoms: _134  and  _135
REMARK   56  A    between atoms: _135  and  _136
REMARK   57  A    between atoms: _138  and  _140
REMARK   58  A    between atoms: _140  and  _141
REMARK   59  A    between atoms: _140  and  _143
REMARK   60  A    between atoms: _143  and  _144
REMARK   61  A    between atoms: _149  and  _151
REMARK   62  A    between atoms: _151  and  _152
REMARK   63  A    between atoms: _151  and  _154
REMARK   64  A    between atoms: _154  and  _155
REMARK   65  A    between atoms: _158  and  _160
REMARK   66  A    between atoms: _160  and  _161
REMARK   67  A    between atoms: _160  and  _163
REMARK   68  A    between atoms: _163  and  _164
REMARK   69  A    between atoms: _166  and  _168
REMARK   70  A    between atoms: _168  and  _169
REMARK   71  A    between atoms: _168  and  _171
REMARK   72  A    between atoms: _171  and  _172
REMARK   73  A    between atoms: _175  and  _177
REMARK   74  A    between atoms: _177  and  _178
REMARK   75  A    between atoms: _177  and  _180
REMARK   76  A    between atoms: _180  and  _181
REMARK   77  A    between atoms: _181  and  _182
REMARK   78  A    between atoms: _182  and  _183
REMARK   79  A    between atoms: _192  and  _194
REMARK   80  A    between atoms: _194  and  _195
REMARK   81  A    between atoms: _194  and  _197
REMARK   82  A    between atoms: _197  and  _198
REMARK   83  A    between atoms: _198  and  _199
REMARK   84  A    between atoms: _202  and  _204
REMARK   85  A    between atoms: _204  and  _205
REMARK   86  A    between atoms: _204  and  _207
REMARK   87  A    between atoms: _207  and  _208
REMARK   88  A    between atoms: _208  and  _209
REMARK   89  A    between atoms: _209  and  _210
REMARK   90  A    between atoms: _219  and  _221
REMARK   91  A    between atoms: _221  and  _222
REMARK   92  A    between atoms: _221  and  _224
REMARK   93  A    between atoms: _224  and  _225
REMARK   94  A    between atoms: _228  and  _230
REMARK   95  A    between atoms: _230  and  _231
REMARK   96  A    between atoms: _230  and  _233
REMARK   97  A    between atoms: _233  and  _234
REMARK   98  A    between atoms: _240  and  _242
REMARK   99  A    between atoms: _242  and  _243
REMARK  100  A    between atoms: _242  and  _245
REMARK  101  A    between atoms: _245  and  _246
REMARK  102  A    between atoms: _251  and  _252
REMARK  103  A    between atoms: _254  and  _256
REMARK  104  A    between atoms: _256  and  _257
REMARK  105  A    between atoms: _256  and  _259
REMARK  106  A    between atoms: _259  and  _260
REMARK  107  A    between atoms: _263  and  _265
REMARK  108  A    between atoms: _265  and  _266
REMARK  109  A    between atoms: _265  and  _268
REMARK  110  A    between atoms: _268  and  _269
REMARK  111  A    between atoms: _272  and  _274
REMARK  112  A    between atoms: _274  and  _275
REMARK  113  A    between atoms: _278  and  _280
REMARK  114  A    between atoms: _280  and  _281
REMARK  115  A    between atoms: _280  and  _283
REMARK  116  A    between atoms: _285  and  _287
REMARK  117  A    between atoms: _287  and  _288
REMARK  118  A    between atoms: _290  and  _292
REMARK  119  A    between atoms: _292  and  _293
REMARK  120  A    between atoms: _292  and  _295
REMARK  121  A    between atoms: _295  and  _296
REMARK  122  A    between atoms: _299  and  _301
REMARK  123  A    between atoms: _301  and  _302
REMARK  124  A    between atoms: _301  and  _304
REMARK  125  A    between atoms: _304  and  _305
REMARK  126  A    between atoms: _311  and  _312
REMARK  127  A    between atoms: _317  and  _319
REMARK  128  A    between atoms: _319  and  _320
REMARK  129  A    between atoms: _319  and  _322
REMARK  130  A    between atoms: _322  and  _323
REMARK  131  A    between atoms: _325  and  _327
REMARK  132  A    between atoms: _327  and  _328
REMARK  133  A    between atoms: _327  and  _330
REMARK  134  A    between atoms: _330  and  _331
REMARK  135  A    between atoms: _334  and  _336
REMARK  136  A    between atoms: _336  and  _337
REMARK  137  A    between atoms: _336  and  _339
REMARK  138  A    between atoms: _339  and  _340
REMARK  139  A    between atoms: _343  and  _345
REMARK  140  A    between atoms: _345  and  _346
REMARK  141  A    between atoms: _345  and  _348
REMARK  142  A    between atoms: _348  and  _349
REMARK  143  A    between atoms: _352  and  _354
REMARK  144  A    between atoms: _354  and  _355
REMARK  145  A    between atoms: _354  and  _357
REMARK  146  A    between atoms: _357  and  _358
REMARK  147  A    between atoms: _361  and  _363
REMARK  148  A    between atoms: _363  and  _364
REMARK  149  A    between atoms: _363  and  _366
REMARK  150  A    between atoms: _369  and  _371
REMARK  151  A    between atoms: _371  and  _372
REMARK  152  A    between atoms: _375  and  _377
REMARK  153  A    between atoms: _377  and  _378
REMARK  154  A    between atoms: _377  and  _380
REMARK  155  A    between atoms: _380  and  _381
REMARK  156  A    between atoms: _384  and  _386
REMARK  157  A    between atoms: _386  and  _387
REMARK  158  A    between atoms: _386  and  _389
REMARK  159  A    between atoms: _389  and  _390
REMARK  160  A    between atoms: _393  and  _395
REMARK  161  A    between atoms: _395  and  _396
REMARK  162  A    between atoms: _395  and  _398
REMARK  163  A    between atoms: _398  and  _399
REMARK  164  A    between atoms: _402  and  _404
REMARK  165  A    between atoms: _404  and  _405
REMARK  166  A    between atoms: _404  and  _407
REMARK  167  A    between atoms: _407  and  _408
REMARK  168  A    between atoms: _408  and  _409
REMARK  169  A    between atoms: _412  and  _414
REMARK  170  A    between atoms: _414  and  _415
REMARK  171  A    between atoms: _414  and  _417
REMARK  172  A    between atoms: _417  and  _418
REMARK  173  A    between atoms: _421  and  _423
REMARK  174  A    between atoms: _423  and  _424
REMARK  175  A    between atoms: _423  and  _426
REMARK  176  A    between atoms: _426  and  _427
REMARK  177  A    between atoms: _430  and  _432
REMARK  178  A    between atoms: _432  and  _433
REMARK  179  A    between atoms: _432  and  _435
REMARK  180  A    between atoms: _435  and  _436
REMARK  181  A    between atoms: _439  and  _441
REMARK  182  A    between atoms: _441  and  _442
REMARK  183  A    between atoms: _441  and  _444
REMARK  184  A    between atoms: _444  and  _445
REMARK  185  A    between atoms: _448  and  _450
REMARK  186  A    between atoms: _450  and  _451
REMARK  187  A    between atoms: _450  and  _453
REMARK  188  A    between atoms: _453  and  _454
REMARK  189  A    between atoms: _454  and  _455
REMARK  190  A    between atoms: _455  and  _456
REMARK  191  A    between atoms: _456  and  _457
REMARK  192  A    between atoms: _461  and  _463
REMARK  193  A    between atoms: _463  and  _464
REMARK  194  A    between atoms: _463  and  _466
REMARK  195  A    between atoms: _466  and  _467
REMARK  196  A    between atoms: _470  and  _472
REMARK  197  A    between atoms: _472  and  _473
REMARK  198  A    between atoms: _472  and  _475
REMARK  199  A    between atoms: _475  and  _476
REMARK  200  A    between atoms: _479  and  _481
REMARK  201  A    between atoms: _481  and  _482
REMARK  202  A    between atoms: _481  and  _484
REMARK  203  A    between atoms: _486  and  _488
REMARK  204  A    between atoms: _488  and  _489
REMARK  205  A    between atoms: _488  and  _491
REMARK  206  A    between atoms: _491  and  _492
REMARK  207  A    between atoms: _495  and  _497
REMARK  208  A    between atoms: _497  and  _498
REMARK  209  A    between atoms: _497  and  _500
REMARK  210  A    between atoms: _500  and  _501
REMARK  211  A    between atoms: _501  and  _502
REMARK  212  A    between atoms: _507  and  _509
REMARK  213  A    between atoms: _509  and  _510
REMARK  214  A    between atoms: _509  and  _512
REMARK  215  A    between atoms: _512  and  _513
REMARK  216  A    between atoms: _513  and  _514
REMARK  217  A    between atoms: _519  and  _521
REMARK  218  A    between atoms: _521  and  _522
REMARK  219  A    between atoms: _521  and  _524
REMARK  220  A    between atoms: _524  and  _525
REMARK  221  A    between atoms: _527  and  _529
REMARK  222  A    between atoms: _529  and  _530
REMARK  223  A    between atoms: _529  and  _532
REMARK  224  A    between atoms: _532  and  _533
REMARK  225  A    between atoms: _536  and  _538
REMARK  226  A    between atoms: _538  and  _539
REMARK  227  A    between atoms: _538  and  _541
REMARK  228  A    between atoms: _541  and  _542
REMARK  229  A    between atoms: _542  and  _543
REMARK                            x       y       z     vdW  Elec       q    Type
REMARK                         _______ _______ _______ _____ _____    ______ ____
ROOT
ATOM      1  CA  SER A   1      18.972  -1.224  10.670  0.00  0.00    +0.163 C 
ENDROOT
BRANCH   1   2
ATOM      2  N   SER A   1      18.851  -1.947   9.406  0.00  0.00    -0.237 NA
ATOM      3  H   SER A   1      18.175  -1.605   8.694  0.00  0.00    +0.142 HD
ENDBRANCH   1   2
BRANCH   1   4
ATOM      4  C   SER A   1      18.831  -2.137  11.881  0.00  0.00    +0.227 C 
ATOM      5  O   SER A   1      19.512  -1.953  12.889  0.00  0.00    -0.287 OA
ENDBRANCH   1   4
BRANCH   1   6
ATOM      6  CB  SER A   1      17.917  -0.123  10.740  0.00  0.00    +0.162 C 
BRANCH   6   7
ATOM      7  OG  SER A   1      16.618  -0.680  10.777  0.00  0.00    -0.380 OA
ATOM      8  H   SER A   1      16.467  -1.218   9.960  0.00  0.00    +0.211 HD
ENDBRANCH   6   7
ENDBRANCH   1   6
TORSDOF 4
REMARK  Name = ../refined-set-2016/3lcu/3lcu_pocket.pdb
REMARK  229 active torsions:
REMARK  status: ('A' for Active; 'I' for Inactive)
REMARK    1  A    between atoms: _1  and  _3
REMARK    2  A    between atoms: _3  and  _4
REMARK    3  A    between atoms: _3  and  _6
REMARK    4  A    between atoms: _9  and  _11
REMARK    5  A    between atoms: _11  and  _12
REMARK    6  A    between atoms: _15  and  _17
REMARK    7  A    between atoms: _17  and  _18
REMARK    8  A    between atoms: _17  and  _20
REMARK    9  A    between atoms: _20  and  _21
REMARK   10  A    between atoms: _24  and  _26
REMARK   11  A    between atoms: _26  and  _27
REMARK   12  A    between atoms: _26  and  _29
REMARK   13  A    between atoms: _29  and  _30
REMARK   14  A    between atoms: _30  and  _31
REMARK   15  A    between atoms: _31  and  _32
REMARK   16  A    between atoms: _41  and  _43
REMARK   17  A    between atoms: _43  and  _44
REMARK   18  A    between atoms: _43  and  _46
REMARK   19  A    between atoms: _46  and  _47
REMARK   20  A    between atoms: _50  and  _52
REMARK   21  A    between atoms: _52  and  _53
REMARK   22  A    between atoms: _55  and  _57
REMARK   23  A    between atoms: _57  and  _58
REMARK   24  A    between atoms: _57  and  _60
REMARK   25  A    between atoms: _60  and  _61
REMARK   26  A    between atoms: _64  and  _66
REMARK   27  A    between atoms: _66  and  _67
REMARK   28  A    between atoms: _66  and  _69
REMARK   29  A    between atoms: _69  and  _70
REMARK   30  A    between atoms: _70  and  _71
REMARK   31  A    between atoms: _74  and  _76
REMARK   32  A    between atoms: _76  and  _77
REMARK   33  A    between atoms: _76  and  _79
REMARK   34  A    between atoms: _79  and  _80
REMARK   35  A    between atoms: _83  and  _85
REMARK   36  A    between atoms: _85  and  _86
REMARK   37  A    between atoms: _85  and  _88
REMARK   38  A    between atoms: _88  and  _89
REMARK   39  A    between atoms: _94  and  _95
REMARK   40  A    between atoms: _97  and  _99
REMARK   41  A    between atoms: _99  and  _100
REMARK   42  A    between atoms: _102  and  _104
REMARK   43  A    between atoms: _104  and  _105
REMARK   44  A    between atoms: _108  and  _110
REMARK   45  A    between atoms: _110  and  _111
REMARK   46  A    between atoms: _110  and  _113
REMARK   47  A    between atoms: _113  and  _114
REMARK   48  A    between atoms: _120  and  _122
REMARK   49  A    between atoms: _122  and  _123
REMARK   50  A    between atoms: _122  and  _125
REMARK   51  A    between atoms: _125  and  _126
REMARK   52  A    between atoms: _129  and  _131
REMARK   53  A    between atoms: _131  and  _132
REMARK   54  A    between atoms: _131  and  _134
REMARK   55  A    between atoms: _134  and  _135
REMARK   56  A    between atoms: _135  and  _136
REMARK   57  A    between atoms: _138  and  _140
REMARK   58  A    between atoms: _140  and  _141
REMARK   59  A    between atoms: _140  and  _143
REMARK   60  A    between atoms: _143  and  _144
REMARK   61  A    between atoms: _149  and  _151
REMARK   62  A    between atoms: _151  and  _152
REMARK   63  A    between atoms: _151  and  _154
REMARK   64  A    between atoms: _154  and  _155
REMARK   65  A    between atoms: _158  and  _160
REMARK   66  A    between atoms: _160  and  _161
REMARK   67  A    between atoms: _160  and  _163
REMARK   68  A    between atoms: _163  and  _164
REMARK   69  A    between atoms: _166  and  _168
REMARK   70  A    between atoms: _168  and  _169
REMARK   71  A    between atoms: _168  and  _171
REMARK   72  A    between atoms: _171  and  _172
REMARK   73  A    between atoms: _175  and  _177
REMARK   74  A    between atoms: _177  and  _178
REMARK   75  A    between atoms: _177  and  _180
REMARK   76  A    between atoms: _180  and  _181
REMARK   77  A    between atoms: _181  and  _182
REMARK   78  A    between atoms: _182  and  _183
REMARK   79  A    between atoms: _192  and  _194
REMARK   80  A    between atoms: _194  and  _195
REMARK   81  A    between atoms: _194  and  _197
REMARK   82  A    between atoms: _197  and  _198
REMARK   83  A    between atoms: _198  and  _199
REMARK   84  A    between atoms: _202  and  _204
REMARK   85  A    between atoms: _204  and  _205
REMARK   86  A    between atoms: _204  and  _207
REMARK   87  A    between atoms: _207  and  _208
REMARK   88  A    between atoms: _208  and  _209
REMARK   89  A    between atoms: _209  and  _210
REMARK   90  A    between atoms: _219  and  _221
REMARK   91  A    between atoms: _221  and  _222
REMARK   92  A    between atoms: _221  and  _224
REMARK   93  A    between atoms: _224  and  _225
REMARK   94  A    between atoms: _228  and  _230
REMARK   95  A    between atoms: _230  and  _231
REMARK   96  A    between atoms: _230  and  _233
REMARK   97  A    between atoms: _233  and  _234
REMARK   98  A    between atoms: _240  and  _242
REMARK   99  A    between atoms: _242  and  _243
REMARK  100  A    between atoms: _242  and  _245
REMARK  101  A    between atoms: _245  and  _246
REMARK  102  A    between atoms: _251  and  _252
REMARK  103  A    between atoms: _254  and  _256
REMARK  104  A    between atoms: _256  and  _257
REMARK  105  A    between atoms: _256  and  _259
REMARK  106  A    between atoms: _259  and  _260
REMARK  107  A    between atoms: _263  and  _265
REMARK  108  A    between atoms: _265  and  _266
REMARK  109  A    between atoms: _265  and  _268
REMARK  110  A    between atoms: _268  and  _269
REMARK  111  A    between atoms: _272  and  _274
REMARK  112  A    between atoms: _274  and  _275
REMARK  113  A    between atoms: _278  and  _280
REMARK  114  A    between atoms: _280  and  _281
REMARK  115  A    between atoms: _280  and  _283
REMARK  116  A    between atoms: _285  and  _287
REMARK  117  A    between atoms: _287  and  _288
REMARK  118  A    between atoms: _290  and  _292
REMARK  119  A    between atoms: _292  and  _293
REMARK  120  A    between atoms: _292  and  _295
REMARK  121  A    between atoms: _295  and  _296
REMARK  122  A    between atoms: _299  and  _301
REMARK  123  A    between atoms: _301  and  _302
REMARK  124  A    between atoms: _301  and  _304
REMARK  125  A    between atoms: _304  and  _305
REMARK  126  A    between atoms: _311  and  _312
REMARK  127  A    between atoms: _317  and  _319
REMARK  128  A    between atoms: _319  and  _320
REMARK  129  A    between atoms: _319  and  _322
REMARK  130  A    between atoms: _322  and  _323
REMARK  131  A    between atoms: _325  and  _327
REMARK  132  A    between atoms: _327  and  _328
REMARK  133  A    between atoms: _327  and  _330
REMARK  134  A    between atoms: _330  and  _331
REMARK  135  A    between atoms: _334  and  _336
REMARK  136  A    between atoms: _336  and  _337
REMARK  137  A    between atoms: _336  and  _339
REMARK  138  A    between atoms: _339  and  _340
REMARK  139  A    between atoms: _343  and  _345
REMARK  140  A    between atoms: _345  and  _346
REMARK  141  A    between atoms: _345  and  _348
REMARK  142  A    between atoms: _348  and  _349
REMARK  143  A    between atoms: _352  and  _354
REMARK  144  A    between atoms: _354  and  _355
REMARK  145  A    between atoms: _354  and  _357
REMARK  146  A    between atoms: _357  and  _358
REMARK  147  A    between atoms: _361  and  _363
REMARK  148  A    between atoms: _363  and  _364
REMARK  149  A    between atoms: _363  and  _366
REMARK  150  A    between atoms: _369  and  _371
REMARK  151  A    between atoms: _371  and  _372
REMARK  152  A    between atoms: _375  and  _377
REMARK  153  A    between atoms: _377  and  _378
REMARK  154  A    between atoms: _377  and  _380
REMARK  155  A    between atoms: _380  and  _381
REMARK  156  A    between atoms: _384  and  _386
REMARK  157  A    between atoms: _386  and  _387
REMARK  158  A    between atoms: _386  and  _389
REMARK  159  A    between atoms: _389  and  _390
REMARK  160  A    between atoms: _393  and  _395
REMARK  161  A    between atoms: _395  and  _396
REMARK  162  A    between atoms: _395  and  _398
REMARK  163  A    between atoms: _398  and  _399
REMARK  164  A    between atoms: _402  and  _404
REMARK  165  A    between atoms: _404  and  _405
REMARK  166  A    between atoms: _404  and  _407
REMARK  167  A    between atoms: _407  and  _408
REMARK  168  A    between atoms: _408  and  _409
REMARK  169  A    between atoms: _412  and  _414
REMARK  170  A    between atoms: _414  and  _415
REMARK  171  A    between atoms: _414  and  _417
REMARK  172  A    between atoms: _417  and  _418
REMARK  173  A    between atoms: _421  and  _423
REMARK  174  A    between atoms: _423  and  _424
REMARK  175  A    between atoms: _423  and  _426
REMARK  176  A    between atoms: _426  and  _427
REMARK  177  A    between atoms: _430  and  _432
REMARK  178  A    between atoms: _432  and  _433
REMARK  179  A    between atoms: _432  and  _435
REMARK  180  A    between atoms: _435  and  _436
REMARK  181  A    between atoms: _439  and  _441
REMARK  182  A    between atoms: _441  and  _442
REMARK  183  A    between atoms: _441  and  _444
REMARK  184  A    between atoms: _444  and  _445
REMARK  185  A    between atoms: _448  and  _450
REMARK  186  A    between atoms: _450  and  _451
REMARK  187  A    between atoms: _450  and  _453
REMARK  188  A    between atoms: _453  and  _454
REMARK  189  A    between atoms: _454  and  _455
REMARK  190  A    between atoms: _455  and  _456
REMARK  191  A    between atoms: _456  and  _457
REMARK  192  A    between atoms: _461  and  _463
REMARK  193  A    between atoms: _463  and  _464
REMARK  194  A    between atoms: _463  and  _466
REMARK  195  A    between atoms: _466  and  _467
REMARK  196  A    between atoms: _470  and  _472
REMARK  197  A    between atoms: _472  and  _473
REMARK  198  A    between atoms: _472  and  _475
REMARK  199  A    between atoms: _475  and  _476
REMARK  200  A    between atoms: _479  and  _481
REMARK  201  A    between atoms: _481  and  _482
REMARK  202  A    between atoms: _481  and  _484
REMARK  203  A    between atoms: _486  and  _488
REMARK  204  A    between atoms: _488  and  _489
REMARK  205  A    between atoms: _488  and  _491
REMARK  206  A    between atoms: _491  and  _492
REMARK  207  A    between atoms: _495  and  _497
REMARK  208  A    between atoms: _497  and  _498
REMARK  209  A    between atoms: _497  and  _500
REMARK  210  A    between atoms: _500  and  _501
REMARK  211  A    between atoms: _501  and  _502
REMARK  212  A    between atoms: _507  and  _509
REMARK  213  A    between atoms: _509  and  _510
REMARK  214  A    between atoms: _509  and  _512
REMARK  215  A    between atoms: _512  and  _513
REMARK  216  A    between atoms: _513  and  _514
REMARK  217  A    between atoms: _519  and  _521
REMARK  218  A    between atoms: _521  and  _522
REMARK  219  A    between atoms: _521  and  _524
REMARK  220  A    between atoms: _524  and  _525
REMARK  221  A    between atoms: _527  and  _529
REMARK  222  A    between atoms: _529  and  _530
REMARK  223  A    between atoms: _529  and  _532
REMARK  224  A    between atoms: _532  and  _533
REMARK  225  A    between atoms: _536  and  _538
REMARK  226  A    between atoms: _538  and  _539
REMARK  227  A    between atoms: _538  and  _541
REMARK  228  A    between atoms: _541  and  _542
REMARK  229  A    between atoms: _542  and  _543
REMARK                            x       y       z     vdW  Elec       q    Type
REMARK                         _______ _______ _______ _____ _____    ______ ____
ROOT
ATOM      1  CA  THR A   1      11.216 -10.011  20.345  0.00  0.00    +0.000 C 
ENDROOT
BRANCH   1   2
ATOM      2  N   THR A   1      12.429  -9.217  20.512  0.00  0.00    +0.000 NA
ATOM      3  H   THR A   1      12.380  -8.178  20.513  0.00  0.00    +0.000 HD
ENDBRANCH   1   2
BRANCH   1   4
ATOM      4  CB  THR A   1      10.254  -9.873  21.561  0.00  0.00    +0.000 C 
ATOM      5  CG2 THR A   1      11.043  -9.927  22.862  0.00  0.00    +0.000 C 
BRANCH   4   6
ATOM      6  OG1 THR A   1       9.541  -8.629  21.495  0.00  0.00    +0.000 OA
ATOM      7  HG1 THR A   1       8.934  -8.556  22.274  0.00  0.00    +0.000 HD
ENDBRANCH   4   6
ENDBRANCH   1   4
BRANCH   1   8
ATOM      8  C   THR A   1      10.476  -9.644  19.071  0.00  0.00    +0.000 C 
ATOM      9  O   THR A   1      10.658  -8.552  18.511  0.00  0.00    +0.000 OA
ENDBRANCH   1   8
TORSDOF 4
REMARK  Name = ../refined-set-2016/3lcu/3lcu_pocket.pdb
REMARK  229 active torsions:
REMARK  status: ('A' for Active; 'I' for Inactive)
REMARK    1  A    between atoms: _1  and  _3
REMARK    2  A    between atoms: _3  and  _4
REMARK    3  A    between atoms: _3  and  _6
REMARK    4  A    between atoms: _9  and  _11
REMARK    5  A    between atoms: _11  and  _12
REMARK    6  A    between atoms: _15  and  _17
REMARK    7  A    between atoms: _17  and  _18
REMARK    8  A    between atoms: _17  and  _20
REMARK    9  A    between atoms: _20  and  _21
REMARK   10  A    between atoms: _24  and  _26
REMARK   11  A    between atoms: _26  and  _27
REMARK   12  A    between atoms: _26  and  _29
REMARK   13  A    between atoms: _29  and  _30
REMARK   14  A    between atoms: _30  and  _31
REMARK   15  A    between atoms: _31  and  _32
REMARK   16  A    between atoms: _41  and  _43
REMARK   17  A    between atoms: _43  and  _44
REMARK   18  A    between atoms: _43  and  _46
REMARK   19  A    between atoms: _46  and  _47
REMARK   20  A    between atoms: _50  and  _52
REMARK   21  A    between atoms: _52  and  _53
REMARK   22  A    between atoms: _55  and  _57
REMARK   23  A    between atoms: _57  and  _58
REMARK   24  A    between atoms: _57  and  _60
REMARK   25  A    between atoms: _60  and  _61
REMARK   26  A    between atoms: _64  and  _66
REMARK   27  A    between atoms: _66  and  _67
REMARK   28  A    between atoms: _66  and  _69
REMARK   29  A    between atoms: _69  and  _70
REMARK   30  A    between atoms: _70  and  _71
REMARK   31  A    between atoms: _74  and  _76
REMARK   32  A    between atoms: _76  and  _77
REMARK   33  A    between atoms: _76  and  _79
REMARK   34  A    between atoms: _79  and  _80
REMARK   35  A    between atoms: _83  and  _85
REMARK   36  A    between atoms: _85  and  _86
REMARK   37  A    between atoms: _85  and  _88
REMARK   38  A    between atoms: _88  and  _89
REMARK   39  A    between atoms: _94  and  _95
REMARK   40  A    between atoms: _97  and  _99
REMARK   41  A    between atoms: _99  and  _100
REMARK   42  A    between atoms: _102  and  _104
REMARK   43  A    between atoms: _104  and  _105
REMARK   44  A    between atoms: _108  and  _110
REMARK   45  A    between atoms: _110  and  _111
REMARK   46  A    between atoms: _110  and  _113
REMARK   47  A    between atoms: _113  and  _114
REMARK   48  A    between atoms: _120  and  _122
REMARK   49  A    between atoms: _122  and  _123
REMARK   50  A    between atoms: _122  and  _125
REMARK   51  A    between atoms: _125  and  _126
REMARK   52  A    between atoms: _129  and  _131
REMARK   53  A    between atoms: _131  and  _132
REMARK   54  A    between atoms: _131  and  _134
REMARK   55  A    between atoms: _134  and  _135
REMARK   56  A    between atoms: _135  and  _136
REMARK   57  A    between atoms: _138  and  _140
REMARK   58  A    between atoms: _140  and  _141
REMARK   59  A    between atoms: _140  and  _143
REMARK   60  A    between atoms: _143  and  _144
REMARK   61  A    between atoms: _149  and  _151
REMARK   62  A    between atoms: _151  and  _152
REMARK   63  A    between atoms: _151  and  _154
REMARK   64  A    between atoms: _154  and  _155
REMARK   65  A    between atoms: _158  and  _160
REMARK   66  A    between atoms: _160  and  _161
REMARK   67  A    between atoms: _160  and  _163
REMARK   68  A    between atoms: _163  and  _164
REMARK   69  A    between atoms: _166  and  _168
REMARK   70  A    between atoms: _168  and  _169
REMARK   71  A    between atoms: _168  and  _171
REMARK   72  A    between atoms: _171  and  _172
REMARK   73  A    between atoms: _175  and  _177
REMARK   74  A    between atoms: _177  and  _178
REMARK   75  A    between atoms: _177  and  _180
REMARK   76  A    between atoms: _180  and  _181
REMARK   77  A    between atoms: _181  and  _182
REMARK   78  A    between atoms: _182  and  _183
REMARK   79  A    between atoms: _192  and  _194
REMARK   80  A    between atoms: _194  and  _195
REMARK   81  A    between atoms: _194  and  _197
REMARK   82  A    between atoms: _197  and  _198
REMARK   83  A    between atoms: _198  and  _199
REMARK   84  A    between atoms: _202  and  _204
REMARK   85  A    between atoms: _204  and  _205
REMARK   86  A    between atoms: _204  and  _207
REMARK   87  A    between atoms: _207  and  _208
REMARK   88  A    between atoms: _208  and  _209
REMARK   89  A    between atoms: _209  and  _210
REMARK   90  A    between atoms: _219  and  _221
REMARK   91  A    between atoms: _221  and  _222
REMARK   92  A    between atoms: _221  and  _224
REMARK   93  A    between atoms: _224  and  _225
REMARK   94  A    between atoms: _228  and  _230
REMARK   95  A    between atoms: _230  and  _231
REMARK   96  A    between atoms: _230  and  _233
REMARK   97  A    between atoms: _233  and  _234
REMARK   98  A    between atoms: _240  and  _242
REMARK   99  A    between atoms: _242  and  _243
REMARK  100  A    between atoms: _242  and  _245
REMARK  101  A    between atoms: _245  and  _246
REMARK  102  A    between atoms: _251  and  _252
REMARK  103  A    between atoms: _254  and  _256
REMARK  104  A    between atoms: _256  and  _257
REMARK  105  A    between atoms: _256  and  _259
REMARK  106  A    between atoms: _259  and  _260
REMARK  107  A    between atoms: _263  and  _265
REMARK  108  A    between atoms: _265  and  _266
REMARK  109  A    between atoms: _265  and  _268
REMARK  110  A    between atoms: _268  and  _269
REMARK  111  A    between atoms: _272  and  _274
REMARK  112  A    between atoms: _274  and  _275
REMARK  113  A    between atoms: _278  and  _280
REMARK  114  A    between atoms: _280  and  _281
REMARK  115  A    between atoms: _280  and  _283
REMARK  116  A    between atoms: _285  and  _287
REMARK  117  A    between atoms: _287  and  _288
REMARK  118  A    between atoms: _290  and  _292
REMARK  119  A    between atoms: _292  and  _293
REMARK  120  A    between atoms: _292  and  _295
REMARK  121  A    between atoms: _295  and  _296
REMARK  122  A    between atoms: _299  and  _301
REMARK  123  A    between atoms: _301  and  _302
REMARK  124  A    between atoms: _301  and  _304
REMARK  125  A    between atoms: _304  and  _305
REMARK  126  A    between atoms: _311  and  _312
REMARK  127  A    between atoms: _317  and  _319
REMARK  128  A    between atoms: _319  and  _320
REMARK  129  A    between atoms: _319  and  _322
REMARK  130  A    between atoms: _322  and  _323
REMARK  131  A    between atoms: _325  and  _327
REMARK  132  A    between atoms: _327  and  _328
REMARK  133  A    between atoms: _327  and  _330
REMARK  134  A    between atoms: _330  and  _331
REMARK  135  A    between atoms: _334  and  _336
REMARK  136  A    between atoms: _336  and  _337
REMARK  137  A    between atoms: _336  and  _339
REMARK  138  A    between atoms: _339  and  _340
REMARK  139  A    between atoms: _343  and  _345
REMARK  140  A    between atoms: _345  and  _346
REMARK  141  A    between atoms: _345  and  _348
REMARK  142  A    between atoms: _348  and  _349
REMARK  143  A    between atoms: _352  and  _354
REMARK  144  A    between atoms: _354  and  _355
REMARK  145  A    between atoms: _354  and  _357
REMARK  146  A    between atoms: _357  and  _358
REMARK  147  A    between atoms: _361  and  _363
REMARK  148  A    between atoms: _363  and  _364
REMARK  149  A    between atoms: _363  and  _366
REMARK  150  A    between atoms: _369  and  _371
REMARK  151  A    between atoms: _371  and  _372
REMARK  152  A    between atoms: _375  and  _377
REMARK  153  A    between atoms: _377  and  _378
REMARK  154  A    between atoms: _377  and  _380
REMARK  155  A    between atoms: _380  and  _381
REMARK  156  A    between atoms: _384  and  _386
REMARK  157  A    between atoms: _386  and  _387
REMARK  158  A    between atoms: _386  and  _389
REMARK  159  A    between atoms: _389  and  _390
REMARK  160  A    between atoms: _393  and  _395
REMARK  161  A    between atoms: _395  and  _396
REMARK  162  A    between atoms: _395  and  _398
REMARK  163  A    between atoms: _398  and  _399
REMARK  164  A    between atoms: _402  and  _404
REMARK  165  A    between atoms: _404  and  _405
REMARK  166  A    between atoms: _404  and  _407
REMARK  167  A    between atoms: _407  and  _408
REMARK  168  A    between atoms: _408  and  _409
REMARK  169  A    between atoms: _412  and  _414
REMARK  170  A    between atoms: _414  and  _415
REMARK  171  A    between atoms: _414  and  _417
REMARK  172  A    between atoms: _417  and  _418
REMARK  173  A    between atoms: _421  and  _423
REMARK  174  A    between atoms: _423  and  _424
REMARK  175  A    between atoms: _423  and  _426
REMARK  176  A    between atoms: _426  and  _427
REMARK  177  A    between atoms: _430  and  _432
REMARK  178  A    between atoms: _432  and  _433
REMARK  179  A    between atoms: _432  and  _435
REMARK  180  A    between atoms: _435  and  _436
REMARK  181  A    between atoms: _439  and  _441
REMARK  182  A    between atoms: _441  and  _442
REMARK  183  A    between atoms: _441  and  _444
REMARK  184  A    between atoms: _444  and  _445
REMARK  185  A    between atoms: _448  and  _450
REMARK  186  A    between atoms: _450  and  _451
REMARK  187  A    between atoms: _450  and  _453
REMARK  188  A    between atoms: _453  and  _454
REMARK  189  A    between atoms: _454  and  _455
REMARK  190  A    between atoms: _455  and  _456
REMARK  191  A    between atoms: _456  and  _457
REMARK  192  A    between atoms: _461  and  _463
REMARK  193  A    between atoms: _463  and  _464
REMARK  194  A    between atoms: _463  and  _466
REMARK  195  A    between atoms: _466  and  _467
REMARK  196  A    between atoms: _470  and  _472
REMARK  197  A    between atoms: _472  and  _473
REMARK  198  A    between atoms: _472  and  _475
REMARK  199  A    between atoms: _475  and  _476
REMARK  200  A    between atoms: _479  and  _481
REMARK  201  A    between atoms: _481  and  _482
REMARK  202  A    between atoms: _481  and  _484
REMARK  203  A    between atoms: _486  and  _488
REMARK  204  A    between atoms: _488  and  _489
REMARK  205  A    between atoms: _488  and  _491
REMARK  206  A    between atoms: _491  and  _492
REMARK  207  A    between atoms: _495  and  _497
REMARK  208  A    between atoms: _497  and  _498
REMARK  209  A    between atoms: _497  and  _500
REMARK  210  A    between atoms: _500  and  _501
REMARK  211  A    between atoms: _501  and  _502
REMARK  212  A    between atoms: _507  and  _509
REMARK  213  A    between atoms: _509  and  _510
REMARK  214  A    between atoms: _509  and  _512
REMARK  215  A    between atoms: _512  and  _513
REMARK  216  A    between atoms: _513  and  _514
REMARK  217  A    between atoms: _519  and  _521
REMARK  218  A    between atoms: _521  and  _522
REMARK  219  A    between atoms: _521  and  _524
REMARK  220  A    between atoms: _524  and  _525
REMARK  221  A    between atoms: _527  and  _529
REMARK  222  A    between atoms: _529  and  _530
REMARK  223  A    between atoms: _529  and  _532
REMARK  224  A    between atoms: _532  and  _533
REMARK  225  A    between atoms: _536  and  _538
REMARK  226  A    between atoms: _538  and  _539
REMARK  227  A    between atoms: _538  and  _541
REMARK  228  A    between atoms: _541  and  _542
REMARK  229  A    between atoms: _542  and  _543
REMARK                            x       y       z     vdW  Elec       q    Type
REMARK                         _______ _______ _______ _____ _____    ______ ____
ROOT
ATOM      1  CA  GLU A   1       5.719 -13.107  21.219  0.00  0.00    +0.000 C 
ENDROOT
BRANCH   1   2
ATOM      2  N   GLU A   1       4.399 -13.686  21.431  0.00  0.00    +0.000 NA
ATOM      3  H   GLU A   1       4.274 -14.426  22.151  0.00  0.00    +0.000 HD
ENDBRANCH   1   2
BRANCH   1   4
ATOM      4  C   GLU A   1       6.831 -14.147  21.085  0.00  0.00    +0.000 C 
ATOM      5  O   GLU A   1       6.934 -15.074  21.887  0.00  0.00    +0.000 OA
ENDBRANCH   1   4
BRANCH   1   6
ATOM      6  CB  GLU A   1       6.050 -12.156  22.379  0.00  0.00    +0.000 C 
BRANCH   6   7
ATOM      7  CG  GLU A   1       6.691 -10.816  21.990  0.00  0.00    +0.000 C 
BRANCH   7   8
ATOM      8  CD  GLU A   1       6.779  -9.852  23.167  0.00  0.00    +0.000 C 
ATOM      9  OE2 GLU A   1       5.841  -9.854  23.984  0.00  0.00    +0.000 OA
ATOM     10  OE1 GLU A   1       7.763  -9.082  23.276  0.00  0.00    +0.000 OA
ENDBRANCH   7   8
ENDBRANCH   6   7
ENDBRANCH   1   6
TORSDOF 5
REMARK  Name = ../refined-set-2016/3lcu/3lcu_pocket.pdb
REMARK  229 active torsions:
REMARK  status: ('A' for Active; 'I' for Inactive)
REMARK    1  A    between atoms: _1  and  _3
REMARK    2  A    between atoms: _3  and  _4
REMARK    3  A    between atoms: _3  and  _6
REMARK    4  A    between atoms: _9  and  _11
REMARK    5  A    between atoms: _11  and  _12
REMARK    6  A    between atoms: _15  and  _17
REMARK    7  A    between atoms: _17  and  _18
REMARK    8  A    between atoms: _17  and  _20
REMARK    9  A    between atoms: _20  and  _21
REMARK   10  A    between atoms: _24  and  _26
REMARK   11  A    between atoms: _26  and  _27
REMARK   12  A    between atoms: _26  and  _29
REMARK   13  A    between atoms: _29  and  _30
REMARK   14  A    between atoms: _30  and  _31
REMARK   15  A    between atoms: _31  and  _32
REMARK   16  A    between atoms: _41  and  _43
REMARK   17  A    between atoms: _43  and  _44
REMARK   18  A    between atoms: _43  and  _46
REMARK   19  A    between atoms: _46  and  _47
REMARK   20  A    between atoms: _50  and  _52
REMARK   21  A    between atoms: _52  and  _53
REMARK   22  A    between atoms: _55  and  _57
REMARK   23  A    between atoms: _57  and  _58
REMARK   24  A    between atoms: _57  and  _60
REMARK   25  A    between atoms: _60  and  _61
REMARK   26  A    between atoms: _64  and  _66
REMARK   27  A    between atoms: _66  and  _67
REMARK   28  A    between atoms: _66  and  _69
REMARK   29  A    between atoms: _69  and  _70
REMARK   30  A    between atoms: _70  and  _71
REMARK   31  A    between atoms: _74  and  _76
REMARK   32  A    between atoms: _76  and  _77
REMARK   33  A    between atoms: _76  and  _79
REMARK   34  A    between atoms: _79  and  _80
REMARK   35  A    between atoms: _83  and  _85
REMARK   36  A    between atoms: _85  and  _86
REMARK   37  A    between atoms: _85  and  _88
REMARK   38  A    between atoms: _88  and  _89
REMARK   39  A    between atoms: _94  and  _95
REMARK   40  A    between atoms: _97  and  _99
REMARK   41  A    between atoms: _99  and  _100
REMARK   42  A    between atoms: _102  and  _104
REMARK   43  A    between atoms: _104  and  _105
REMARK   44  A    between atoms: _108  and  _110
REMARK   45  A    between atoms: _110  and  _111
REMARK   46  A    between atoms: _110  and  _113
REMARK   47  A    between atoms: _113  and  _114
REMARK   48  A    between atoms: _120  and  _122
REMARK   49  A    between atoms: _122  and  _123
REMARK   50  A    between atoms: _122  and  _125
REMARK   51  A    between atoms: _125  and  _126
REMARK   52  A    between atoms: _129  and  _131
REMARK   53  A    between atoms: _131  and  _132
REMARK   54  A    between atoms: _131  and  _134
REMARK   55  A    between atoms: _134  and  _135
REMARK   56  A    between atoms: _135  and  _136
REMARK   57  A    between atoms: _138  and  _140
REMARK   58  A    between atoms: _140  and  _141
REMARK   59  A    between atoms: _140  and  _143
REMARK   60  A    between atoms: _143  and  _144
REMARK   61  A    between atoms: _149  and  _151
REMARK   62  A    between atoms: _151  and  _152
REMARK   63  A    between atoms: _151  and  _154
REMARK   64  A    between atoms: _154  and  _155
REMARK   65  A    between atoms: _158  and  _160
REMARK   66  A    between atoms: _160  and  _161
REMARK   67  A    between atoms: _160  and  _163
REMARK   68  A    between atoms: _163  and  _164
REMARK   69  A    between atoms: _166  and  _168
REMARK   70  A    between atoms: _168  and  _169
REMARK   71  A    between atoms: _168  and  _171
REMARK   72  A    between atoms: _171  and  _172
REMARK   73  A    between atoms: _175  and  _177
REMARK   74  A    between atoms: _177  and  _178
REMARK   75  A    between atoms: _177  and  _180
REMARK   76  A    between atoms: _180  and  _181
REMARK   77  A    between atoms: _181  and  _182
REMARK   78  A    between atoms: _182  and  _183
REMARK   79  A    between atoms: _192  and  _194
REMARK   80  A    between atoms: _194  and  _195
REMARK   81  A    between atoms: _194  and  _197
REMARK   82  A    between atoms: _197  and  _198
REMARK   83  A    between atoms: _198  and  _199
REMARK   84  A    between atoms: _202  and  _204
REMARK   85  A    between atoms: _204  and  _205
REMARK   86  A    between atoms: _204  and  _207
REMARK   87  A    between atoms: _207  and  _208
REMARK   88  A    between atoms: _208  and  _209
REMARK   89  A    between atoms: _209  and  _210
REMARK   90  A    between atoms: _219  and  _221
REMARK   91  A    between atoms: _221  and  _222
REMARK   92  A    between atoms: _221  and  _224
REMARK   93  A    between atoms: _224  and  _225
REMARK   94  A    between atoms: _228  and  _230
REMARK   95  A    between atoms: _230  and  _231
REMARK   96  A    between atoms: _230  and  _233
REMARK   97  A    between atoms: _233  and  _234
REMARK   98  A    between atoms: _240  and  _242
REMARK   99  A    between atoms: _242  and  _243
REMARK  100  A    between atoms: _242  and  _245
REMARK  101  A    between atoms: _245  and  _246
REMARK  102  A    between atoms: _251  and  _252
REMARK  103  A    between atoms: _254  and  _256
REMARK  104  A    between atoms: _256  and  _257
REMARK  105  A    between atoms: _256  and  _259
REMARK  106  A    between atoms: _259  and  _260
REMARK  107  A    between atoms: _263  and  _265
REMARK  108  A    between atoms: _265  and  _266
REMARK  109  A    between atoms: _265  and  _268
REMARK  110  A    between atoms: _268  and  _269
REMARK  111  A    between atoms: _272  and  _274
REMARK  112  A    between atoms: _274  and  _275
REMARK  113  A    between atoms: _278  and  _280
REMARK  114  A    between atoms: _280  and  _281
REMARK  115  A    between atoms: _280  and  _283
REMARK  116  A    between atoms: _285  and  _287
REMARK  117  A    between atoms: _287  and  _288
REMARK  118  A    between atoms: _290  and  _292
REMARK  119  A    between atoms: _292  and  _293
REMARK  120  A    between atoms: _292  and  _295
REMARK  121  A    between atoms: _295  and  _296
REMARK  122  A    between atoms: _299  and  _301
REMARK  123  A    between atoms: _301  and  _302
REMARK  124  A    between atoms: _301  and  _304
REMARK  125  A    between atoms: _304  and  _305
REMARK  126  A    between atoms: _311  and  _312
REMARK  127  A    between atoms: _317  and  _319
REMARK  128  A    between atoms: _319  and  _320
REMARK  129  A    between atoms: _319  and  _322
REMARK  130  A    between atoms: _322  and  _323
REMARK  131  A    between atoms: _325  and  _327
REMARK  132  A    between atoms: _327  and  _328
REMARK  133  A    between atoms: _327  and  _330
REMARK  134  A    between atoms: _330  and  _331
REMARK  135  A    between atoms: _334  and  _336
REMARK  136  A    between atoms: _336  and  _337
REMARK  137  A    between atoms: _336  and  _339
REMARK  138  A    between atoms: _339  and  _340
REMARK  139  A    between atoms: _343  and  _345
REMARK  140  A    between atoms: _345  and  _346
REMARK  141  A    between atoms: _345  and  _348
REMARK  142  A    between atoms: _348  and  _349
REMARK  143  A    between atoms: _352  and  _354
REMARK  144  A    between atoms: _354  and  _355
REMARK  145  A    between atoms: _354  and  _357
REMARK  146  A    between atoms: _357  and  _358
REMARK  147  A    between atoms: _361  and  _363
REMARK  148  A    between atoms: _363  and  _364
REMARK  149  A    between atoms: _363  and  _366
REMARK  150  A    between atoms: _369  and  _371
REMARK  151  A    between atoms: _371  and  _372
REMARK  152  A    between atoms: _375  and  _377
REMARK  153  A    between atoms: _377  and  _378
REMARK  154  A    between atoms: _377  and  _380
REMARK  155  A    between atoms: _380  and  _381
REMARK  156  A    between atoms: _384  and  _386
REMARK  157  A    between atoms: _386  and  _387
REMARK  158  A    between atoms: _386  and  _389
REMARK  159  A    between atoms: _389  and  _390
REMARK  160  A    between atoms: _393  and  _395
REMARK  161  A    between atoms: _395  and  _396
REMARK  162  A    between atoms: _395  and  _398
REMARK  163  A    between atoms: _398  and  _399
REMARK  164  A    between atoms: _402  and  _404
REMARK  165  A    between atoms: _404  and  _405
REMARK  166  A    between atoms: _404  and  _407
REMARK  167  A    between atoms: _407  and  _408
REMARK  168  A    between atoms: _408  and  _409
REMARK  169  A    between atoms: _412  and  _414
REMARK  170  A    between atoms: _414  and  _415
REMARK  171  A    between atoms: _414  and  _417
REMARK  172  A    between atoms: _417  and  _418
REMARK  173  A    between atoms: _421  and  _423
REMARK  174  A    between atoms: _423  and  _424
REMARK  175  A    between atoms: _423  and  _426
REMARK  176  A    between atoms: _426  and  _427
REMARK  177  A    between atoms: _430  and  _432
REMARK  178  A    between atoms: _432  and  _433
REMARK  179  A    between atoms: _432  and  _435
REMARK  180  A    between atoms: _435  and  _436
REMARK  181  A    between atoms: _439  and  _441
REMARK  182  A    between atoms: _441  and  _442
REMARK  183  A    between atoms: _441  and  _444
REMARK  184  A    between atoms: _444  and  _445
REMARK  185  A    between atoms: _448  and  _450
REMARK  186  A    between atoms: _450  and  _451
REMARK  187  A    between atoms: _450  and  _453
REMARK  188  A    between atoms: _453  and  _454
REMARK  189  A    between atoms: _454  and  _455
REMARK  190  A    between atoms: _455  and  _456
REMARK  191  A    between atoms: _456  and  _457
REMARK  192  A    between atoms: _461  and  _463
REMARK  193  A    between atoms: _463  and  _464
REMARK  194  A    between atoms: _463  and  _466
REMARK  195  A    between atoms: _466  and  _467
REMARK  196  A    between atoms: _470  and  _472
REMARK  197  A    between atoms: _472  and  _473
REMARK  198  A    between atoms: _472  and  _475
REMARK  199  A    between atoms: _475  and  _476
REMARK  200  A    between atoms: _479  and  _481
REMARK  201  A    between atoms: _481  and  _482
REMARK  202  A    between atoms: _481  and  _484
REMARK  203  A    between atoms: _486  and  _488
REMARK  204  A    between atoms: _488  and  _489
REMARK  205  A    between atoms: _488  and  _491
REMARK  206  A    between atoms: _491  and  _492
REMARK  207  A    between atoms: _495  and  _497
REMARK  208  A    between atoms: _497  and  _498
REMARK  209  A    between atoms: _497  and  _500
REMARK  210  A    between atoms: _500  and  _501
REMARK  211  A    between atoms: _501  and  _502
REMARK  212  A    between atoms: _507  and  _509
REMARK  213  A    between atoms: _509  and  _510
REMARK  214  A    between atoms: _509  and  _512
REMARK  215  A    between atoms: _512  and  _513
REMARK  216  A    between atoms: _513  and  _514
REMARK  217  A    between atoms: _519  and  _521
REMARK  218  A    between atoms: _521  and  _522
REMARK  219  A    between atoms: _521  and  _524
REMARK  220  A    between atoms: _524  and  _525
REMARK  221  A    between atoms: _527  and  _529
REMARK  222  A    between atoms: _529  and  _530
REMARK  223  A    between atoms: _529  and  _532
REMARK  224  A    between atoms: _532  and  _533
REMARK  225  A    between atoms: _536  and  _538
REMARK  226  A    between atoms: _538  and  _539
REMARK  227  A    between atoms: _538  and  _541
REMARK  228  A    between atoms: _541  and  _542
REMARK  229  A    between atoms: _542  and  _543
REMARK                            x       y       z     vdW  Elec       q    Type
REMARK                         _______ _______ _______ _____ _____    ______ ____
ROOT
ATOM      1  O   HOH     1       3.027  -9.087  23.224  0.00  0.00    +0.000 OA
ENDROOT
TORSDOF 0
REMARK  Name = ../refined-set-2016/3lcu/3lcu_pocket.pdb
REMARK  229 active torsions:
REMARK  status: ('A' for Active; 'I' for Inactive)
REMARK    1  A    between atoms: _1  and  _3
REMARK    2  A    between atoms: _3  and  _4
REMARK    3  A    between atoms: _3  and  _6
REMARK    4  A    between atoms: _9  and  _11
REMARK    5  A    between atoms: _11  and  _12
REMARK    6  A    between atoms: _15  and  _17
REMARK    7  A    between atoms: _17  and  _18
REMARK    8  A    between atoms: _17  and  _20
REMARK    9  A    between atoms: _20  and  _21
REMARK   10  A    between atoms: _24  and  _26
REMARK   11  A    between atoms: _26  and  _27
REMARK   12  A    between atoms: _26  and  _29
REMARK   13  A    between atoms: _29  and  _30
REMARK   14  A    between atoms: _30  and  _31
REMARK   15  A    between atoms: _31  and  _32
REMARK   16  A    between atoms: _41  and  _43
REMARK   17  A    between atoms: _43  and  _44
REMARK   18  A    between atoms: _43  and  _46
REMARK   19  A    between atoms: _46  and  _47
REMARK   20  A    between atoms: _50  and  _52
REMARK   21  A    between atoms: _52  and  _53
REMARK   22  A    between atoms: _55  and  _57
REMARK   23  A    between atoms: _57  and  _58
REMARK   24  A    between atoms: _57  and  _60
REMARK   25  A    between atoms: _60  and  _61
REMARK   26  A    between atoms: _64  and  _66
REMARK   27  A    between atoms: _66  and  _67
REMARK   28  A    between atoms: _66  and  _69
REMARK   29  A    between atoms: _69  and  _70
REMARK   30  A    between atoms: _70  and  _71
REMARK   31  A    between atoms: _74  and  _76
REMARK   32  A    between atoms: _76  and  _77
REMARK   33  A    between atoms: _76  and  _79
REMARK   34  A    between atoms: _79  and  _80
REMARK   35  A    between atoms: _83  and  _85
REMARK   36  A    between atoms: _85  and  _86
REMARK   37  A    between atoms: _85  and  _88
REMARK   38  A    between atoms: _88  and  _89
REMARK   39  A    between atoms: _94  and  _95
REMARK   40  A    between atoms: _97  and  _99
REMARK   41  A    between atoms: _99  and  _100
REMARK   42  A    between atoms: _102  and  _104
REMARK   43  A    between atoms: _104  and  _105
REMARK   44  A    between atoms: _108  and  _110
REMARK   45  A    between atoms: _110  and  _111
REMARK   46  A    between atoms: _110  and  _113
REMARK   47  A    between atoms: _113  and  _114
REMARK   48  A    between atoms: _120  and  _122
REMARK   49  A    between atoms: _122  and  _123
REMARK   50  A    between atoms: _122  and  _125
REMARK   51  A    between atoms: _125  and  _126
REMARK   52  A    between atoms: _129  and  _131
REMARK   53  A    between atoms: _131  and  _132
REMARK   54  A    between atoms: _131  and  _134
REMARK   55  A    between atoms: _134  and  _135
REMARK   56  A    between atoms: _135  and  _136
REMARK   57  A    between atoms: _138  and  _140
REMARK   58  A    between atoms: _140  and  _141
REMARK   59  A    between atoms: _140  and  _143
REMARK   60  A    between atoms: _143  and  _144
REMARK   61  A    between atoms: _149  and  _151
REMARK   62  A    between atoms: _151  and  _152
REMARK   63  A    between atoms: _151  and  _154
REMARK   64  A    between atoms: _154  and  _155
REMARK   65  A    between atoms: _158  and  _160
REMARK   66  A    between atoms: _160  and  _161
REMARK   67  A    between atoms: _160  and  _163
REMARK   68  A    between atoms: _163  and  _164
REMARK   69  A    between atoms: _166  and  _168
REMARK   70  A    between atoms: _168  and  _169
REMARK   71  A    between atoms: _168  and  _171
REMARK   72  A    between atoms: _171  and  _172
REMARK   73  A    between atoms: _175  and  _177
REMARK   74  A    between atoms: _177  and  _178
REMARK   75  A    between atoms: _177  and  _180
REMARK   76  A    between atoms: _180  and  _181
REMARK   77  A    between atoms: _181  and  _182
REMARK   78  A    between atoms: _182  and  _183
REMARK   79  A    between atoms: _192  and  _194
REMARK   80  A    between atoms: _194  and  _195
REMARK   81  A    between atoms: _194  and  _197
REMARK   82  A    between atoms: _197  and  _198
REMARK   83  A    between atoms: _198  and  _199
REMARK   84  A    between atoms: _202  and  _204
REMARK   85  A    between atoms: _204  and  _205
REMARK   86  A    between atoms: _204  and  _207
REMARK   87  A    between atoms: _207  and  _208
REMARK   88  A    between atoms: _208  and  _209
REMARK   89  A    between atoms: _209  and  _210
REMARK   90  A    between atoms: _219  and  _221
REMARK   91  A    between atoms: _221  and  _222
REMARK   92  A    between atoms: _221  and  _224
REMARK   93  A    between atoms: _224  and  _225
REMARK   94  A    between atoms: _228  and  _230
REMARK   95  A    between atoms: _230  and  _231
REMARK   96  A    between atoms: _230  and  _233
REMARK   97  A    between atoms: _233  and  _234
REMARK   98  A    between atoms: _240  and  _242
REMARK   99  A    between atoms: _242  and  _243
REMARK  100  A    between atoms: _242  and  _245
REMARK  101  A    between atoms: _245  and  _246
REMARK  102  A    between atoms: _251  and  _252
REMARK  103  A    between atoms: _254  and  _256
REMARK  104  A    between atoms: _256  and  _257
REMARK  105  A    between atoms: _256  and  _259
REMARK  106  A    between atoms: _259  and  _260
REMARK  107  A    between atoms: _263  and  _265
REMARK  108  A    between atoms: _265  and  _266
REMARK  109  A    between atoms: _265  and  _268
REMARK  110  A    between atoms: _268  and  _269
REMARK  111  A    between atoms: _272  and  _274
REMARK  112  A    between atoms: _274  and  _275
REMARK  113  A    between atoms: _278  and  _280
REMARK  114  A    between atoms: _280  and  _281
REMARK  115  A    between atoms: _280  and  _283
REMARK  116  A    between atoms: _285  and  _287
REMARK  117  A    between atoms: _287  and  _288
REMARK  118  A    between atoms: _290  and  _292
REMARK  119  A    between atoms: _292  and  _293
REMARK  120  A    between atoms: _292  and  _295
REMARK  121  A    between atoms: _295  and  _296
REMARK  122  A    between atoms: _299  and  _301
REMARK  123  A    between atoms: _301  and  _302
REMARK  124  A    between atoms: _301  and  _304
REMARK  125  A    between atoms: _304  and  _305
REMARK  126  A    between atoms: _311  and  _312
REMARK  127  A    between atoms: _317  and  _319
REMARK  128  A    between atoms: _319  and  _320
REMARK  129  A    between atoms: _319  and  _322
REMARK  130  A    between atoms: _322  and  _323
REMARK  131  A    between atoms: _325  and  _327
REMARK  132  A    between atoms: _327  and  _328
REMARK  133  A    between atoms: _327  and  _330
REMARK  134  A    between atoms: _330  and  _331
REMARK  135  A    between atoms: _334  and  _336
REMARK  136  A    between atoms: _336  and  _337
REMARK  137  A    between atoms: _336  and  _339
REMARK  138  A    between atoms: _339  and  _340
REMARK  139  A    between atoms: _343  and  _345
REMARK  140  A    between atoms: _345  and  _346
REMARK  141  A    between atoms: _345  and  _348
REMARK  142  A    between atoms: _348  and  _349
REMARK  143  A    between atoms: _352  and  _354
REMARK  144  A    between atoms: _354  and  _355
REMARK  145  A    between atoms: _354  and  _357
REMARK  146  A    between atoms: _357  and  _358
REMARK  147  A    between atoms: _361  and  _363
REMARK  148  A    between atoms: _363  and  _364
REMARK  149  A    between atoms: _363  and  _366
REMARK  150  A    between atoms: _369  and  _371
REMARK  151  A    between atoms: _371  and  _372
REMARK  152  A    between atoms: _375  and  _377
REMARK  153  A    between atoms: _377  and  _378
REMARK  154  A    between atoms: _377  and  _380
REMARK  155  A    between atoms: _380  and  _381
REMARK  156  A    between atoms: _384  and  _386
REMARK  157  A    between atoms: _386  and  _387
REMARK  158  A    between atoms: _386  and  _389
REMARK  159  A    between atoms: _389  and  _390
REMARK  160  A    between atoms: _393  and  _395
REMARK  161  A    between atoms: _395  and  _396
REMARK  162  A    between atoms: _395  and  _398
REMARK  163  A    between atoms: _398  and  _399
REMARK  164  A    between atoms: _402  and  _404
REMARK  165  A    between atoms: _404  and  _405
REMARK  166  A    between atoms: _404  and  _407
REMARK  167  A    between atoms: _407  and  _408
REMARK  168  A    between atoms: _408  and  _409
REMARK  169  A    between atoms: _412  and  _414
REMARK  170  A    between atoms: _414  and  _415
REMARK  171  A    between atoms: _414  and  _417
REMARK  172  A    between atoms: _417  and  _418
REMARK  173  A    between atoms: _421  and  _423
REMARK  174  A    between atoms: _423  and  _424
REMARK  175  A    between atoms: _423  and  _426
REMARK  176  A    between atoms: _426  and  _427
REMARK  177  A    between atoms: _430  and  _432
REMARK  178  A    between atoms: _432  and  _433
REMARK  179  A    between atoms: _432  and  _435
REMARK  180  A    between atoms: _435  and  _436
REMARK  181  A    between atoms: _439  and  _441
REMARK  182  A    between atoms: _441  and  _442
REMARK  183  A    between atoms: _441  and  _444
REMARK  184  A    between atoms: _444  and  _445
REMARK  185  A    between atoms: _448  and  _450
REMARK  186  A    between atoms: _450  and  _451
REMARK  187  A    between atoms: _450  and  _453
REMARK  188  A    between atoms: _453  and  _454
REMARK  189  A    between atoms: _454  and  _455
REMARK  190  A    between atoms: _455  and  _456
REMARK  191  A    between atoms: _456  and  _457
REMARK  192  A    between atoms: _461  and  _463
REMARK  193  A    between atoms: _463  and  _464
REMARK  194  A    between atoms: _463  and  _466
REMARK  195  A    between atoms: _466  and  _467
REMARK  196  A    between atoms: _470  and  _472
REMARK  197  A    between atoms: _472  and  _473
REMARK  198  A    between atoms: _472  and  _475
REMARK  199  A    between atoms: _475  and  _476
REMARK  200  A    between atoms: _479  and  _481
REMARK  201  A    between atoms: _481  and  _482
REMARK  202  A    between atoms: _481  and  _484
REMARK  203  A    between atoms: _486  and  _488
REMARK  204  A    between atoms: _488  and  _489
REMARK  205  A    between atoms: _488  and  _491
REMARK  206  A    between atoms: _491  and  _492
REMARK  207  A    between atoms: _495  and  _497
REMARK  208  A    between atoms: _497  and  _498
REMARK  209  A    between atoms: _497  and  _500
REMARK  210  A    between atoms: _500  and  _501
REMARK  211  A    between atoms: _501  and  _502
REMARK  212  A    between atoms: _507  and  _509
REMARK  213  A    between atoms: _509  and  _510
REMARK  214  A    between atoms: _509  and  _512
REMARK  215  A    between atoms: _512  and  _513
REMARK  216  A    between atoms: _513  and  _514
REMARK  217  A    between atoms: _519  and  _521
REMARK  218  A    between atoms: _521  and  _522
REMARK  219  A    between atoms: _521  and  _524
REMARK  220  A    between atoms: _524  and  _525
REMARK  221  A    between atoms: _527  and  _529
REMARK  222  A    between atoms: _529  and  _530
REMARK  223  A    between atoms: _529  and  _532
REMARK  224  A    between atoms: _532  and  _533
REMARK  225  A    between atoms: _536  and  _538
REMARK  226  A    between atoms: _538  and  _539
REMARK  227  A    between atoms: _538  and  _541
REMARK  228  A    between atoms: _541  and  _542
REMARK  229  A    between atoms: _542  and  _543
REMARK                            x       y       z     vdW  Elec       q    Type
REMARK                         _______ _______ _______ _____ _____    ______ ____
ROOT
ATOM      1  O   HOH     1      11.667  -2.481  23.817  0.00  0.00    +0.000 OA
ENDROOT
TORSDOF 0
REMARK  Name = ../refined-set-2016/3lcu/3lcu_pocket.pdb
REMARK  229 active torsions:
REMARK  status: ('A' for Active; 'I' for Inactive)
REMARK    1  A    between atoms: _1  and  _3
REMARK    2  A    between atoms: _3  and  _4
REMARK    3  A    between atoms: _3  and  _6
REMARK    4  A    between atoms: _9  and  _11
REMARK    5  A    between atoms: _11  and  _12
REMARK    6  A    between atoms: _15  and  _17
REMARK    7  A    between atoms: _17  and  _18
REMARK    8  A    between atoms: _17  and  _20
REMARK    9  A    between atoms: _20  and  _21
REMARK   10  A    between atoms: _24  and  _26
REMARK   11  A    between atoms: _26  and  _27
REMARK   12  A    between atoms: _26  and  _29
REMARK   13  A    between atoms: _29  and  _30
REMARK   14  A    between atoms: _30  and  _31
REMARK   15  A    between atoms: _31  and  _32
REMARK   16  A    between atoms: _41  and  _43
REMARK   17  A    between atoms: _43  and  _44
REMARK   18  A    between atoms: _43  and  _46
REMARK   19  A    between atoms: _46  and  _47
REMARK   20  A    between atoms: _50  and  _52
REMARK   21  A    between atoms: _52  and  _53
REMARK   22  A    between atoms: _55  and  _57
REMARK   23  A    between atoms: _57  and  _58
REMARK   24  A    between atoms: _57  and  _60
REMARK   25  A    between atoms: _60  and  _61
REMARK   26  A    between atoms: _64  and  _66
REMARK   27  A    between atoms: _66  and  _67
REMARK   28  A    between atoms: _66  and  _69
REMARK   29  A    between atoms: _69  and  _70
REMARK   30  A    between atoms: _70  and  _71
REMARK   31  A    between atoms: _74  and  _76
REMARK   32  A    between atoms: _76  and  _77
REMARK   33  A    between atoms: _76  and  _79
REMARK   34  A    between atoms: _79  and  _80
REMARK   35  A    between atoms: _83  and  _85
REMARK   36  A    between atoms: _85  and  _86
REMARK   37  A    between atoms: _85  and  _88
REMARK   38  A    between atoms: _88  and  _89
REMARK   39  A    between atoms: _94  and  _95
REMARK   40  A    between atoms: _97  and  _99
REMARK   41  A    between atoms: _99  and  _100
REMARK   42  A    between atoms: _102  and  _104
REMARK   43  A    between atoms: _104  and  _105
REMARK   44  A    between atoms: _108  and  _110
REMARK   45  A    between atoms: _110  and  _111
REMARK   46  A    between atoms: _110  and  _113
REMARK   47  A    between atoms: _113  and  _114
REMARK   48  A    between atoms: _120  and  _122
REMARK   49  A    between atoms: _122  and  _123
REMARK   50  A    between atoms: _122  and  _125
REMARK   51  A    between atoms: _125  and  _126
REMARK   52  A    between atoms: _129  and  _131
REMARK   53  A    between atoms: _131  and  _132
REMARK   54  A    between atoms: _131  and  _134
REMARK   55  A    between atoms: _134  and  _135
REMARK   56  A    between atoms: _135  and  _136
REMARK   57  A    between atoms: _138  and  _140
REMARK   58  A    between atoms: _140  and  _141
REMARK   59  A    between atoms: _140  and  _143
REMARK   60  A    between atoms: _143  and  _144
REMARK   61  A    between atoms: _149  and  _151
REMARK   62  A    between atoms: _151  and  _152
REMARK   63  A    between atoms: _151  and  _154
REMARK   64  A    between atoms: _154  and  _155
REMARK   65  A    between atoms: _158  and  _160
REMARK   66  A    between atoms: _160  and  _161
REMARK   67  A    between atoms: _160  and  _163
REMARK   68  A    between atoms: _163  and  _164
REMARK   69  A    between atoms: _166  and  _168
REMARK   70  A    between atoms: _168  and  _169
REMARK   71  A    between atoms: _168  and  _171
REMARK   72  A    between atoms: _171  and  _172
REMARK   73  A    between atoms: _175  and  _177
REMARK   74  A    between atoms: _177  and  _178
REMARK   75  A    between atoms: _177  and  _180
REMARK   76  A    between atoms: _180  and  _181
REMARK   77  A    between atoms: _181  and  _182
REMARK   78  A    between atoms: _182  and  _183
REMARK   79  A    between atoms: _192  and  _194
REMARK   80  A    between atoms: _194  and  _195
REMARK   81  A    between atoms: _194  and  _197
REMARK   82  A    between atoms: _197  and  _198
REMARK   83  A    between atoms: _198  and  _199
REMARK   84  A    between atoms: _202  and  _204
REMARK   85  A    between atoms: _204  and  _205
REMARK   86  A    between atoms: _204  and  _207
REMARK   87  A    between atoms: _207  and  _208
REMARK   88  A    between atoms: _208  and  _209
REMARK   89  A    between atoms: _209  and  _210
REMARK   90  A    between atoms: _219  and  _221
REMARK   91  A    between atoms: _221  and  _222
REMARK   92  A    between atoms: _221  and  _224
REMARK   93  A    between atoms: _224  and  _225
REMARK   94  A    between atoms: _228  and  _230
REMARK   95  A    between atoms: _230  and  _231
REMARK   96  A    between atoms: _230  and  _233
REMARK   97  A    between atoms: _233  and  _234
REMARK   98  A    between atoms: _240  and  _242
REMARK   99  A    between atoms: _242  and  _243
REMARK  100  A    between atoms: _242  and  _245
REMARK  101  A    between atoms: _245  and  _246
REMARK  102  A    between atoms: _251  and  _252
REMARK  103  A    between atoms: _254  and  _256
REMARK  104  A    between atoms: _256  and  _257
REMARK  105  A    between atoms: _256  and  _259
REMARK  106  A    between atoms: _259  and  _260
REMARK  107  A    between atoms: _263  and  _265
REMARK  108  A    between atoms: _265  and  _266
REMARK  109  A    between atoms: _265  and  _268
REMARK  110  A    between atoms: _268  and  _269
REMARK  111  A    between atoms: _272  and  _274
REMARK  112  A    between atoms: _274  and  _275
REMARK  113  A    between atoms: _278  and  _280
REMARK  114  A    between atoms: _280  and  _281
REMARK  115  A    between atoms: _280  and  _283
REMARK  116  A    between atoms: _285  and  _287
REMARK  117  A    between atoms: _287  and  _288
REMARK  118  A    between atoms: _290  and  _292
REMARK  119  A    between atoms: _292  and  _293
REMARK  120  A    between atoms: _292  and  _295
REMARK  121  A    between atoms: _295  and  _296
REMARK  122  A    between atoms: _299  and  _301
REMARK  123  A    between atoms: _301  and  _302
REMARK  124  A    between atoms: _301  and  _304
REMARK  125  A    between atoms: _304  and  _305
REMARK  126  A    between atoms: _311  and  _312
REMARK  127  A    between atoms: _317  and  _319
REMARK  128  A    between atoms: _319  and  _320
REMARK  129  A    between atoms: _319  and  _322
REMARK  130  A    between atoms: _322  and  _323
REMARK  131  A    between atoms: _325  and  _327
REMARK  132  A    between atoms: _327  and  _328
REMARK  133  A    between atoms: _327  and  _330
REMARK  134  A    between atoms: _330  and  _331
REMARK  135  A    between atoms: _334  and  _336
REMARK  136  A    between atoms: _336  and  _337
REMARK  137  A    between atoms: _336  and  _339
REMARK  138  A    between atoms: _339  and  _340
REMARK  139  A    between atoms: _343  and  _345
REMARK  140  A    between atoms: _345  and  _346
REMARK  141  A    between atoms: _345  and  _348
REMARK  142  A    between atoms: _348  and  _349
REMARK  143  A    between atoms: _352  and  _354
REMARK  144  A    between atoms: _354  and  _355
REMARK  145  A    between atoms: _354  and  _357
REMARK  146  A    between atoms: _357  and  _358
REMARK  147  A    between atoms: _361  and  _363
REMARK  148  A    between atoms: _363  and  _364
REMARK  149  A    between atoms: _363  and  _366
REMARK  150  A    between atoms: _369  and  _371
REMARK  151  A    between atoms: _371  and  _372
REMARK  152  A    between atoms: _375  and  _377
REMARK  153  A    between atoms: _377  and  _378
REMARK  154  A    between atoms: _377  and  _380
REMARK  155  A    between atoms: _380  and  _381
REMARK  156  A    between atoms: _384  and  _386
REMARK  157  A    between atoms: _386  and  _387
REMARK  158  A    between atoms: _386  and  _389
REMARK  159  A    between atoms: _389  and  _390
REMARK  160  A    between atoms: _393  and  _395
REMARK  161  A    between atoms: _395  and  _396
REMARK  162  A    between atoms: _395  and  _398
REMARK  163  A    between atoms: _398  and  _399
REMARK  164  A    between atoms: _402  and  _404
REMARK  165  A    between atoms: _404  and  _405
REMARK  166  A    between atoms: _404  and  _407
REMARK  167  A    between atoms: _407  and  _408
REMARK  168  A    between atoms: _408  and  _409
REMARK  169  A    between atoms: _412  and  _414
REMARK  170  A    between atoms: _414  and  _415
REMARK  171  A    between atoms: _414  and  _417
REMARK  172  A    between atoms: _417  and  _418
REMARK  173  A    between atoms: _421  and  _423
REMARK  174  A    between atoms: _423  and  _424
REMARK  175  A    between atoms: _423  and  _426
REMARK  176  A    between atoms: _426  and  _427
REMARK  177  A    between atoms: _430  and  _432
REMARK  178  A    between atoms: _432  and  _433
REMARK  179  A    between atoms: _432  and  _435
REMARK  180  A    between atoms: _435  and  _436
REMARK  181  A    between atoms: _439  and  _441
REMARK  182  A    between atoms: _441  and  _442
REMARK  183  A    between atoms: _441  and  _444
REMARK  184  A    between atoms: _444  and  _445
REMARK  185  A    between atoms: _448  and  _450
REMARK  186  A    between atoms: _450  and  _451
REMARK  187  A    between atoms: _450  and  _453
REMARK  188  A    between atoms: _453  and  _454
REMARK  189  A    between atoms: _454  and  _455
REMARK  190  A    between atoms: _455  and  _456
REMARK  191  A    between atoms: _456  and  _457
REMARK  192  A    between atoms: _461  and  _463
REMARK  193  A    between atoms: _463  and  _464
REMARK  194  A    between atoms: _463  and  _466
REMARK  195  A    between atoms: _466  and  _467
REMARK  196  A    between atoms: _470  and  _472
REMARK  197  A    between atoms: _472  and  _473
REMARK  198  A    between atoms: _472  and  _475
REMARK  199  A    between atoms: _475  and  _476
REMARK  200  A    between atoms: _479  and  _481
REMARK  201  A    between atoms: _481  and  _482
REMARK  202  A    between atoms: _481  and  _484
REMARK  203  A    between atoms: _486  and  _488
REMARK  204  A    between atoms: _488  and  _489
REMARK  205  A    between atoms: _488  and  _491
REMARK  206  A    between atoms: _491  and  _492
REMARK  207  A    between atoms: _495  and  _497
REMARK  208  A    between atoms: _497  and  _498
REMARK  209  A    between atoms: _497  and  _500
REMARK  210  A    between atoms: _500  and  _501
REMARK  211  A    between atoms: _501  and  _502
REMARK  212  A    between atoms: _507  and  _509
REMARK  213  A    between atoms: _509  and  _510
REMARK  214  A    between atoms: _509  and  _512
REMARK  215  A    between atoms: _512  and  _513
REMARK  216  A    between atoms: _513  and  _514
REMARK  217  A    between atoms: _519  and  _521
REMARK  218  A    between atoms: _521  and  _522
REMARK  219  A    between atoms: _521  and  _524
REMARK  220  A    between atoms: _524  and  _525
REMARK  221  A    between atoms: _527  and  _529
REMARK  222  A    between atoms: _529  and  _530
REMARK  223  A    between atoms: _529  and  _532
REMARK  224  A    between atoms: _532  and  _533
REMARK  225  A    between atoms: _536  and  _538
REMARK  226  A    between atoms: _538  and  _539
REMARK  227  A    between atoms: _538  and  _541
REMARK  228  A    between atoms: _541  and  _542
REMARK  229  A    between atoms: _542  and  _543
REMARK                            x       y       z     vdW  Elec       q    Type
REMARK                         _______ _______ _______ _____ _____    ______ ____
ROOT
ATOM      1  O   HOH     1       9.250  -2.131  25.578  0.00  0.00    +0.000 OA
ENDROOT
TORSDOF 0
REMARK  Name = ../refined-set-2016/3lcu/3lcu_pocket.pdb
REMARK  229 active torsions:
REMARK  status: ('A' for Active; 'I' for Inactive)
REMARK    1  A    between atoms: _1  and  _3
REMARK    2  A    between atoms: _3  and  _4
REMARK    3  A    between atoms: _3  and  _6
REMARK    4  A    between atoms: _9  and  _11
REMARK    5  A    between atoms: _11  and  _12
REMARK    6  A    between atoms: _15  and  _17
REMARK    7  A    between atoms: _17  and  _18
REMARK    8  A    between atoms: _17  and  _20
REMARK    9  A    between atoms: _20  and  _21
REMARK   10  A    between atoms: _24  and  _26
REMARK   11  A    between atoms: _26  and  _27
REMARK   12  A    between atoms: _26  and  _29
REMARK   13  A    between atoms: _29  and  _30
REMARK   14  A    between atoms: _30  and  _31
REMARK   15  A    between atoms: _31  and  _32
REMARK   16  A    between atoms: _41  and  _43
REMARK   17  A    between atoms: _43  and  _44
REMARK   18  A    between atoms: _43  and  _46
REMARK   19  A    between atoms: _46  and  _47
REMARK   20  A    between atoms: _50  and  _52
REMARK   21  A    between atoms: _52  and  _53
REMARK   22  A    between atoms: _55  and  _57
REMARK   23  A    between atoms: _57  and  _58
REMARK   24  A    between atoms: _57  and  _60
REMARK   25  A    between atoms: _60  and  _61
REMARK   26  A    between atoms: _64  and  _66
REMARK   27  A    between atoms: _66  and  _67
REMARK   28  A    between atoms: _66  and  _69
REMARK   29  A    between atoms: _69  and  _70
REMARK   30  A    between atoms: _70  and  _71
REMARK   31  A    between atoms: _74  and  _76
REMARK   32  A    between atoms: _76  and  _77
REMARK   33  A    between atoms: _76  and  _79
REMARK   34  A    between atoms: _79  and  _80
REMARK   35  A    between atoms: _83  and  _85
REMARK   36  A    between atoms: _85  and  _86
REMARK   37  A    between atoms: _85  and  _88
REMARK   38  A    between atoms: _88  and  _89
REMARK   39  A    between atoms: _94  and  _95
REMARK   40  A    between atoms: _97  and  _99
REMARK   41  A    between atoms: _99  and  _100
REMARK   42  A    between atoms: _102  and  _104
REMARK   43  A    between atoms: _104  and  _105
REMARK   44  A    between atoms: _108  and  _110
REMARK   45  A    between atoms: _110  and  _111
REMARK   46  A    between atoms: _110  and  _113
REMARK   47  A    between atoms: _113  and  _114
REMARK   48  A    between atoms: _120  and  _122
REMARK   49  A    between atoms: _122  and  _123
REMARK   50  A    between atoms: _122  and  _125
REMARK   51  A    between atoms: _125  and  _126
REMARK   52  A    between atoms: _129  and  _131
REMARK   53  A    between atoms: _131  and  _132
REMARK   54  A    between atoms: _131  and  _134
REMARK   55  A    between atoms: _134  and  _135
REMARK   56  A    between atoms: _135  and  _136
REMARK   57  A    between atoms: _138  and  _140
REMARK   58  A    between atoms: _140  and  _141
REMARK   59  A    between atoms: _140  and  _143
REMARK   60  A    between atoms: _143  and  _144
REMARK   61  A    between atoms: _149  and  _151
REMARK   62  A    between atoms: _151  and  _152
REMARK   63  A    between atoms: _151  and  _154
REMARK   64  A    between atoms: _154  and  _155
REMARK   65  A    between atoms: _158  and  _160
REMARK   66  A    between atoms: _160  and  _161
REMARK   67  A    between atoms: _160  and  _163
REMARK   68  A    between atoms: _163  and  _164
REMARK   69  A    between atoms: _166  and  _168
REMARK   70  A    between atoms: _168  and  _169
REMARK   71  A    between atoms: _168  and  _171
REMARK   72  A    between atoms: _171  and  _172
REMARK   73  A    between atoms: _175  and  _177
REMARK   74  A    between atoms: _177  and  _178
REMARK   75  A    between atoms: _177  and  _180
REMARK   76  A    between atoms: _180  and  _181
REMARK   77  A    between atoms: _181  and  _182
REMARK   78  A    between atoms: _182  and  _183
REMARK   79  A    between atoms: _192  and  _194
REMARK   80  A    between atoms: _194  and  _195
REMARK   81  A    between atoms: _194  and  _197
REMARK   82  A    between atoms: _197  and  _198
REMARK   83  A    between atoms: _198  and  _199
REMARK   84  A    between atoms: _202  and  _204
REMARK   85  A    between atoms: _204  and  _205
REMARK   86  A    between atoms: _204  and  _207
REMARK   87  A    between atoms: _207  and  _208
REMARK   88  A    between atoms: _208  and  _209
REMARK   89  A    between atoms: _209  and  _210
REMARK   90  A    between atoms: _219  and  _221
REMARK   91  A    between atoms: _221  and  _222
REMARK   92  A    between atoms: _221  and  _224
REMARK   93  A    between atoms: _224  and  _225
REMARK   94  A    between atoms: _228  and  _230
REMARK   95  A    between atoms: _230  and  _231
REMARK   96  A    between atoms: _230  and  _233
REMARK   97  A    between atoms: _233  and  _234
REMARK   98  A    between atoms: _240  and  _242
REMARK   99  A    between atoms: _242  and  _243
REMARK  100  A    between atoms: _242  and  _245
REMARK  101  A    between atoms: _245  and  _246
REMARK  102  A    between atoms: _251  and  _252
REMARK  103  A    between atoms: _254  and  _256
REMARK  104  A    between atoms: _256  and  _257
REMARK  105  A    between atoms: _256  and  _259
REMARK  106  A    between atoms: _259  and  _260
REMARK  107  A    between atoms: _263  and  _265
REMARK  108  A    between atoms: _265  and  _266
REMARK  109  A    between atoms: _265  and  _268
REMARK  110  A    between atoms: _268  and  _269
REMARK  111  A    between atoms: _272  and  _274
REMARK  112  A    between atoms: _274  and  _275
REMARK  113  A    between atoms: _278  and  _280
REMARK  114  A    between atoms: _280  and  _281
REMARK  115  A    between atoms: _280  and  _283
REMARK  116  A    between atoms: _285  and  _287
REMARK  117  A    between atoms: _287  and  _288
REMARK  118  A    between atoms: _290  and  _292
REMARK  119  A    between atoms: _292  and  _293
REMARK  120  A    between atoms: _292  and  _295
REMARK  121  A    between atoms: _295  and  _296
REMARK  122  A    between atoms: _299  and  _301
REMARK  123  A    between atoms: _301  and  _302
REMARK  124  A    between atoms: _301  and  _304
REMARK  125  A    between atoms: _304  and  _305
REMARK  126  A    between atoms: _311  and  _312
REMARK  127  A    between atoms: _317  and  _319
REMARK  128  A    between atoms: _319  and  _320
REMARK  129  A    between atoms: _319  and  _322
REMARK  130  A    between atoms: _322  and  _323
REMARK  131  A    between atoms: _325  and  _327
REMARK  132  A    between atoms: _327  and  _328
REMARK  133  A    between atoms: _327  and  _330
REMARK  134  A    between atoms: _330  and  _331
REMARK  135  A    between atoms: _334  and  _336
REMARK  136  A    between atoms: _336  and  _337
REMARK  137  A    between atoms: _336  and  _339
REMARK  138  A    between atoms: _339  and  _340
REMARK  139  A    between atoms: _343  and  _345
REMARK  140  A    between atoms: _345  and  _346
REMARK  141  A    between atoms: _345  and  _348
REMARK  142  A    between atoms: _348  and  _349
REMARK  143  A    between atoms: _352  and  _354
REMARK  144  A    between atoms: _354  and  _355
REMARK  145  A    between atoms: _354  and  _357
REMARK  146  A    between atoms: _357  and  _358
REMARK  147  A    between atoms: _361  and  _363
REMARK  148  A    between atoms: _363  and  _364
REMARK  149  A    between atoms: _363  and  _366
REMARK  150  A    between atoms: _369  and  _371
REMARK  151  A    between atoms: _371  and  _372
REMARK  152  A    between atoms: _375  and  _377
REMARK  153  A    between atoms: _377  and  _378
REMARK  154  A    between atoms: _377  and  _380
REMARK  155  A    between atoms: _380  and  _381
REMARK  156  A    between atoms: _384  and  _386
REMARK  157  A    between atoms: _386  and  _387
REMARK  158  A    between atoms: _386  and  _389
REMARK  159  A    between atoms: _389  and  _390
REMARK  160  A    between atoms: _393  and  _395
REMARK  161  A    between atoms: _395  and  _396
REMARK  162  A    between atoms: _395  and  _398
REMARK  163  A    between atoms: _398  and  _399
REMARK  164  A    between atoms: _402  and  _404
REMARK  165  A    between atoms: _404  and  _405
REMARK  166  A    between atoms: _404  and  _407
REMARK  167  A    between atoms: _407  and  _408
REMARK  168  A    between atoms: _408  and  _409
REMARK  169  A    between atoms: _412  and  _414
REMARK  170  A    between atoms: _414  and  _415
REMARK  171  A    between atoms: _414  and  _417
REMARK  172  A    between atoms: _417  and  _418
REMARK  173  A    between atoms: _421  and  _423
REMARK  174  A    between atoms: _423  and  _424
REMARK  175  A    between atoms: _423  and  _426
REMARK  176  A    between atoms: _426  and  _427
REMARK  177  A    between atoms: _430  and  _432
REMARK  178  A    between atoms: _432  and  _433
REMARK  179  A    between atoms: _432  and  _435
REMARK  180  A    between atoms: _435  and  _436
REMARK  181  A    between atoms: _439  and  _441
REMARK  182  A    between atoms: _441  and  _442
REMARK  183  A    between atoms: _441  and  _444
REMARK  184  A    between atoms: _444  and  _445
REMARK  185  A    between atoms: _448  and  _450
REMARK  186  A    between atoms: _450  and  _451
REMARK  187  A    between atoms: _450  and  _453
REMARK  188  A    between atoms: _453  and  _454
REMARK  189  A    between atoms: _454  and  _455
REMARK  190  A    between atoms: _455  and  _456
REMARK  191  A    between atoms: _456  and  _457
REMARK  192  A    between atoms: _461  and  _463
REMARK  193  A    between atoms: _463  and  _464
REMARK  194  A    between atoms: _463  and  _466
REMARK  195  A    between atoms: _466  and  _467
REMARK  196  A    between atoms: _470  and  _472
REMARK  197  A    between atoms: _472  and  _473
REMARK  198  A    between atoms: _472  and  _475
REMARK  199  A    between atoms: _475  and  _476
REMARK  200  A    between atoms: _479  and  _481
REMARK  201  A    between atoms: _481  and  _482
REMARK  202  A    between atoms: _481  and  _484
REMARK  203  A    between atoms: _486  and  _488
REMARK  204  A    between atoms: _488  and  _489
REMARK  205  A    between atoms: _488  and  _491
REMARK  206  A    between atoms: _491  and  _492
REMARK  207  A    between atoms: _495  and  _497
REMARK  208  A    between atoms: _497  and  _498
REMARK  209  A    between atoms: _497  and  _500
REMARK  210  A    between atoms: _500  and  _501
REMARK  211  A    between atoms: _501  and  _502
REMARK  212  A    between atoms: _507  and  _509
REMARK  213  A    between atoms: _509  and  _510
REMARK  214  A    between atoms: _509  and  _512
REMARK  215  A    between atoms: _512  and  _513
REMARK  216  A    between atoms: _513  and  _514
REMARK  217  A    between atoms: _519  and  _521
REMARK  218  A    between atoms: _521  and  _522
REMARK  219  A    between atoms: _521  and  _524
REMARK  220  A    between atoms: _524  and  _525
REMARK  221  A    between atoms: _527  and  _529
REMARK  222  A    between atoms: _529  and  _530
REMARK  223  A    between atoms: _529  and  _532
REMARK  224  A    between atoms: _532  and  _533
REMARK  225  A    between atoms: _536  and  _538
REMARK  226  A    between atoms: _538  and  _539
REMARK  227  A    between atoms: _538  and  _541
REMARK  228  A    between atoms: _541  and  _542
REMARK  229  A    between atoms: _542  and  _543
REMARK                            x       y       z     vdW  Elec       q    Type
REMARK                         _______ _______ _______ _____ _____    ______ ____
ROOT
ATOM      1  O   HOH     1      12.431  -6.358  18.206  0.00  0.00    +0.000 OA
ENDROOT
TORSDOF 0
REMARK  Name = ../refined-set-2016/3lcu/3lcu_pocket.pdb
REMARK  229 active torsions:
REMARK  status: ('A' for Active; 'I' for Inactive)
REMARK    1  A    between atoms: _1  and  _3
REMARK    2  A    between atoms: _3  and  _4
REMARK    3  A    between atoms: _3  and  _6
REMARK    4  A    between atoms: _9  and  _11
REMARK    5  A    between atoms: _11  and  _12
REMARK    6  A    between atoms: _15  and  _17
REMARK    7  A    between atoms: _17  and  _18
REMARK    8  A    between atoms: _17  and  _20
REMARK    9  A    between atoms: _20  and  _21
REMARK   10  A    between atoms: _24  and  _26
REMARK   11  A    between atoms: _26  and  _27
REMARK   12  A    between atoms: _26  and  _29
REMARK   13  A    between atoms: _29  and  _30
REMARK   14  A    between atoms: _30  and  _31
REMARK   15  A    between atoms: _31  and  _32
REMARK   16  A    between atoms: _41  and  _43
REMARK   17  A    between atoms: _43  and  _44
REMARK   18  A    between atoms: _43  and  _46
REMARK   19  A    between atoms: _46  and  _47
REMARK   20  A    between atoms: _50  and  _52
REMARK   21  A    between atoms: _52  and  _53
REMARK   22  A    between atoms: _55  and  _57
REMARK   23  A    between atoms: _57  and  _58
REMARK   24  A    between atoms: _57  and  _60
REMARK   25  A    between atoms: _60  and  _61
REMARK   26  A    between atoms: _64  and  _66
REMARK   27  A    between atoms: _66  and  _67
REMARK   28  A    between atoms: _66  and  _69
REMARK   29  A    between atoms: _69  and  _70
REMARK   30  A    between atoms: _70  and  _71
REMARK   31  A    between atoms: _74  and  _76
REMARK   32  A    between atoms: _76  and  _77
REMARK   33  A    between atoms: _76  and  _79
REMARK   34  A    between atoms: _79  and  _80
REMARK   35  A    between atoms: _83  and  _85
REMARK   36  A    between atoms: _85  and  _86
REMARK   37  A    between atoms: _85  and  _88
REMARK   38  A    between atoms: _88  and  _89
REMARK   39  A    between atoms: _94  and  _95
REMARK   40  A    between atoms: _97  and  _99
REMARK   41  A    between atoms: _99  and  _100
REMARK   42  A    between atoms: _102  and  _104
REMARK   43  A    between atoms: _104  and  _105
REMARK   44  A    between atoms: _108  and  _110
REMARK   45  A    between atoms: _110  and  _111
REMARK   46  A    between atoms: _110  and  _113
REMARK   47  A    between atoms: _113  and  _114
REMARK   48  A    between atoms: _120  and  _122
REMARK   49  A    between atoms: _122  and  _123
REMARK   50  A    between atoms: _122  and  _125
REMARK   51  A    between atoms: _125  and  _126
REMARK   52  A    between atoms: _129  and  _131
REMARK   53  A    between atoms: _131  and  _132
REMARK   54  A    between atoms: _131  and  _134
REMARK   55  A    between atoms: _134  and  _135
REMARK   56  A    between atoms: _135  and  _136
REMARK   57  A    between atoms: _138  and  _140
REMARK   58  A    between atoms: _140  and  _141
REMARK   59  A    between atoms: _140  and  _143
REMARK   60  A    between atoms: _143  and  _144
REMARK   61  A    between atoms: _149  and  _151
REMARK   62  A    between atoms: _151  and  _152
REMARK   63  A    between atoms: _151  and  _154
REMARK   64  A    between atoms: _154  and  _155
REMARK   65  A    between atoms: _158  and  _160
REMARK   66  A    between atoms: _160  and  _161
REMARK   67  A    between atoms: _160  and  _163
REMARK   68  A    between atoms: _163  and  _164
REMARK   69  A    between atoms: _166  and  _168
REMARK   70  A    between atoms: _168  and  _169
REMARK   71  A    between atoms: _168  and  _171
REMARK   72  A    between atoms: _171  and  _172
REMARK   73  A    between atoms: _175  and  _177
REMARK   74  A    between atoms: _177  and  _178
REMARK   75  A    between atoms: _177  and  _180
REMARK   76  A    between atoms: _180  and  _181
REMARK   77  A    between atoms: _181  and  _182
REMARK   78  A    between atoms: _182  and  _183
REMARK   79  A    between atoms: _192  and  _194
REMARK   80  A    between atoms: _194  and  _195
REMARK   81  A    between atoms: _194  and  _197
REMARK   82  A    between atoms: _197  and  _198
REMARK   83  A    between atoms: _198  and  _199
REMARK   84  A    between atoms: _202  and  _204
REMARK   85  A    between atoms: _204  and  _205
REMARK   86  A    between atoms: _204  and  _207
REMARK   87  A    between atoms: _207  and  _208
REMARK   88  A    between atoms: _208  and  _209
REMARK   89  A    between atoms: _209  and  _210
REMARK   90  A    between atoms: _219  and  _221
REMARK   91  A    between atoms: _221  and  _222
REMARK   92  A    between atoms: _221  and  _224
REMARK   93  A    between atoms: _224  and  _225
REMARK   94  A    between atoms: _228  and  _230
REMARK   95  A    between atoms: _230  and  _231
REMARK   96  A    between atoms: _230  and  _233
REMARK   97  A    between atoms: _233  and  _234
REMARK   98  A    between atoms: _240  and  _242
REMARK   99  A    between atoms: _242  and  _243
REMARK  100  A    between atoms: _242  and  _245
REMARK  101  A    between atoms: _245  and  _246
REMARK  102  A    between atoms: _251  and  _252
REMARK  103  A    between atoms: _254  and  _256
REMARK  104  A    between atoms: _256  and  _257
REMARK  105  A    between atoms: _256  and  _259
REMARK  106  A    between atoms: _259  and  _260
REMARK  107  A    between atoms: _263  and  _265
REMARK  108  A    between atoms: _265  and  _266
REMARK  109  A    between atoms: _265  and  _268
REMARK  110  A    between atoms: _268  and  _269
REMARK  111  A    between atoms: _272  and  _274
REMARK  112  A    between atoms: _274  and  _275
REMARK  113  A    between atoms: _278  and  _280
REMARK  114  A    between atoms: _280  and  _281
REMARK  115  A    between atoms: _280  and  _283
REMARK  116  A    between atoms: _285  and  _287
REMARK  117  A    between atoms: _287  and  _288
REMARK  118  A    between atoms: _290  and  _292
REMARK  119  A    between atoms: _292  and  _293
REMARK  120  A    between atoms: _292  and  _295
REMARK  121  A    between atoms: _295  and  _296
REMARK  122  A    between atoms: _299  and  _301
REMARK  123  A    between atoms: _301  and  _302
REMARK  124  A    between atoms: _301  and  _304
REMARK  125  A    between atoms: _304  and  _305
REMARK  126  A    between atoms: _311  and  _312
REMARK  127  A    between atoms: _317  and  _319
REMARK  128  A    between atoms: _319  and  _320
REMARK  129  A    between atoms: _319  and  _322
REMARK  130  A    between atoms: _322  and  _323
REMARK  131  A    between atoms: _325  and  _327
REMARK  132  A    between atoms: _327  and  _328
REMARK  133  A    between atoms: _327  and  _330
REMARK  134  A    between atoms: _330  and  _331
REMARK  135  A    between atoms: _334  and  _336
REMARK  136  A    between atoms: _336  and  _337
REMARK  137  A    between atoms: _336  and  _339
REMARK  138  A    between atoms: _339  and  _340
REMARK  139  A    between atoms: _343  and  _345
REMARK  140  A    between atoms: _345  and  _346
REMARK  141  A    between atoms: _345  and  _348
REMARK  142  A    between atoms: _348  and  _349
REMARK  143  A    between atoms: _352  and  _354
REMARK  144  A    between atoms: _354  and  _355
REMARK  145  A    between atoms: _354  and  _357
REMARK  146  A    between atoms: _357  and  _358
REMARK  147  A    between atoms: _361  and  _363
REMARK  148  A    between atoms: _363  and  _364
REMARK  149  A    between atoms: _363  and  _366
REMARK  150  A    between atoms: _369  and  _371
REMARK  151  A    between atoms: _371  and  _372
REMARK  152  A    between atoms: _375  and  _377
REMARK  153  A    between atoms: _377  and  _378
REMARK  154  A    between atoms: _377  and  _380
REMARK  155  A    between atoms: _380  and  _381
REMARK  156  A    between atoms: _384  and  _386
REMARK  157  A    between atoms: _386  and  _387
REMARK  158  A    between atoms: _386  and  _389
REMARK  159  A    between atoms: _389  and  _390
REMARK  160  A    between atoms: _393  and  _395
REMARK  161  A    between atoms: _395  and  _396
REMARK  162  A    between atoms: _395  and  _398
REMARK  163  A    between atoms: _398  and  _399
REMARK  164  A    between atoms: _402  and  _404
REMARK  165  A    between atoms: _404  and  _405
REMARK  166  A    between atoms: _404  and  _407
REMARK  167  A    between atoms: _407  and  _408
REMARK  168  A    between atoms: _408  and  _409
REMARK  169  A    between atoms: _412  and  _414
REMARK  170  A    between atoms: _414  and  _415
REMARK  171  A    between atoms: _414  and  _417
REMARK  172  A    between atoms: _417  and  _418
REMARK  173  A    between atoms: _421  and  _423
REMARK  174  A    between atoms: _423  and  _424
REMARK  175  A    between atoms: _423  and  _426
REMARK  176  A    between atoms: _426  and  _427
REMARK  177  A    between atoms: _430  and  _432
REMARK  178  A    between atoms: _432  and  _433
REMARK  179  A    between atoms: _432  and  _435
REMARK  180  A    between atoms: _435  and  _436
REMARK  181  A    between atoms: _439  and  _441
REMARK  182  A    between atoms: _441  and  _442
REMARK  183  A    between atoms: _441  and  _444
REMARK  184  A    between atoms: _444  and  _445
REMARK  185  A    between atoms: _448  and  _450
REMARK  186  A    between atoms: _450  and  _451
REMARK  187  A    between atoms: _450  and  _453
REMARK  188  A    between atoms: _453  and  _454
REMARK  189  A    between atoms: _454  and  _455
REMARK  190  A    between atoms: _455  and  _456
REMARK  191  A    between atoms: _456  and  _457
REMARK  192  A    between atoms: _461  and  _463
REMARK  193  A    between atoms: _463  and  _464
REMARK  194  A    between atoms: _463  and  _466
REMARK  195  A    between atoms: _466  and  _467
REMARK  196  A    between atoms: _470  and  _472
REMARK  197  A    between atoms: _472  and  _473
REMARK  198  A    between atoms: _472  and  _475
REMARK  199  A    between atoms: _475  and  _476
REMARK  200  A    between atoms: _479  and  _481
REMARK  201  A    between atoms: _481  and  _482
REMARK  202  A    between atoms: _481  and  _484
REMARK  203  A    between atoms: _486  and  _488
REMARK  204  A    between atoms: _488  and  _489
REMARK  205  A    between atoms: _488  and  _491
REMARK  206  A    between atoms: _491  and  _492
REMARK  207  A    between atoms: _495  and  _497
REMARK  208  A    between atoms: _497  and  _498
REMARK  209  A    between atoms: _497  and  _500
REMARK  210  A    between atoms: _500  and  _501
REMARK  211  A    between atoms: _501  and  _502
REMARK  212  A    between atoms: _507  and  _509
REMARK  213  A    between atoms: _509  and  _510
REMARK  214  A    between atoms: _509  and  _512
REMARK  215  A    between atoms: _512  and  _513
REMARK  216  A    between atoms: _513  and  _514
REMARK  217  A    between atoms: _519  and  _521
REMARK  218  A    between atoms: _521  and  _522
REMARK  219  A    between atoms: _521  and  _524
REMARK  220  A    between atoms: _524  and  _525
REMARK  221  A    between atoms: _527  and  _529
REMARK  222  A    between atoms: _529  and  _530
REMARK  223  A    between atoms: _529  and  _532
REMARK  224  A    between atoms: _532  and  _533
REMARK  225  A    between atoms: _536  and  _538
REMARK  226  A    between atoms: _538  and  _539
REMARK  227  A    between atoms: _538  and  _541
REMARK  228  A    between atoms: _541  and  _542
REMARK  229  A    between atoms: _542  and  _543
REMARK                            x       y       z     vdW  Elec       q    Type
REMARK                         _______ _______ _______ _____ _____    ______ ____
ROOT
ATOM      1  O   HOH     1       4.561  -4.832  28.698  0.00  0.00    +0.000 OA
ENDROOT
TORSDOF 0
REMARK  Name = ../refined-set-2016/3lcu/3lcu_pocket.pdb
REMARK  229 active torsions:
REMARK  status: ('A' for Active; 'I' for Inactive)
REMARK    1  A    between atoms: _1  and  _3
REMARK    2  A    between atoms: _3  and  _4
REMARK    3  A    between atoms: _3  and  _6
REMARK    4  A    between atoms: _9  and  _11
REMARK    5  A    between atoms: _11  and  _12
REMARK    6  A    between atoms: _15  and  _17
REMARK    7  A    between atoms: _17  and  _18
REMARK    8  A    between atoms: _17  and  _20
REMARK    9  A    between atoms: _20  and  _21
REMARK   10  A    between atoms: _24  and  _26
REMARK   11  A    between atoms: _26  and  _27
REMARK   12  A    between atoms: _26  and  _29
REMARK   13  A    between atoms: _29  and  _30
REMARK   14  A    between atoms: _30  and  _31
REMARK   15  A    between atoms: _31  and  _32
REMARK   16  A    between atoms: _41  and  _43
REMARK   17  A    between atoms: _43  and  _44
REMARK   18  A    between atoms: _43  and  _46
REMARK   19  A    between atoms: _46  and  _47
REMARK   20  A    between atoms: _50  and  _52
REMARK   21  A    between atoms: _52  and  _53
REMARK   22  A    between atoms: _55  and  _57
REMARK   23  A    between atoms: _57  and  _58
REMARK   24  A    between atoms: _57  and  _60
REMARK   25  A    between atoms: _60  and  _61
REMARK   26  A    between atoms: _64  and  _66
REMARK   27  A    between atoms: _66  and  _67
REMARK   28  A    between atoms: _66  and  _69
REMARK   29  A    between atoms: _69  and  _70
REMARK   30  A    between atoms: _70  and  _71
REMARK   31  A    between atoms: _74  and  _76
REMARK   32  A    between atoms: _76  and  _77
REMARK   33  A    between atoms: _76  and  _79
REMARK   34  A    between atoms: _79  and  _80
REMARK   35  A    between atoms: _83  and  _85
REMARK   36  A    between atoms: _85  and  _86
REMARK   37  A    between atoms: _85  and  _88
REMARK   38  A    between atoms: _88  and  _89
REMARK   39  A    between atoms: _94  and  _95
REMARK   40  A    between atoms: _97  and  _99
REMARK   41  A    between atoms: _99  and  _100
REMARK   42  A    between atoms: _102  and  _104
REMARK   43  A    between atoms: _104  and  _105
REMARK   44  A    between atoms: _108  and  _110
REMARK   45  A    between atoms: _110  and  _111
REMARK   46  A    between atoms: _110  and  _113
REMARK   47  A    between atoms: _113  and  _114
REMARK   48  A    between atoms: _120  and  _122
REMARK   49  A    between atoms: _122  and  _123
REMARK   50  A    between atoms: _122  and  _125
REMARK   51  A    between atoms: _125  and  _126
REMARK   52  A    between atoms: _129  and  _131
REMARK   53  A    between atoms: _131  and  _132
REMARK   54  A    between atoms: _131  and  _134
REMARK   55  A    between atoms: _134  and  _135
REMARK   56  A    between atoms: _135  and  _136
REMARK   57  A    between atoms: _138  and  _140
REMARK   58  A    between atoms: _140  and  _141
REMARK   59  A    between atoms: _140  and  _143
REMARK   60  A    between atoms: _143  and  _144
REMARK   61  A    between atoms: _149  and  _151
REMARK   62  A    between atoms: _151  and  _152
REMARK   63  A    between atoms: _151  and  _154
REMARK   64  A    between atoms: _154  and  _155
REMARK   65  A    between atoms: _158  and  _160
REMARK   66  A    between atoms: _160  and  _161
REMARK   67  A    between atoms: _160  and  _163
REMARK   68  A    between atoms: _163  and  _164
REMARK   69  A    between atoms: _166  and  _168
REMARK   70  A    between atoms: _168  and  _169
REMARK   71  A    between atoms: _168  and  _171
REMARK   72  A    between atoms: _171  and  _172
REMARK   73  A    between atoms: _175  and  _177
REMARK   74  A    between atoms: _177  and  _178
REMARK   75  A    between atoms: _177  and  _180
REMARK   76  A    between atoms: _180  and  _181
REMARK   77  A    between atoms: _181  and  _182
REMARK   78  A    between atoms: _182  and  _183
REMARK   79  A    between atoms: _192  and  _194
REMARK   80  A    between atoms: _194  and  _195
REMARK   81  A    between atoms: _194  and  _197
REMARK   82  A    between atoms: _197  and  _198
REMARK   83  A    between atoms: _198  and  _199
REMARK   84  A    between atoms: _202  and  _204
REMARK   85  A    between atoms: _204  and  _205
REMARK   86  A    between atoms: _204  and  _207
REMARK   87  A    between atoms: _207  and  _208
REMARK   88  A    between atoms: _208  and  _209
REMARK   89  A    between atoms: _209  and  _210
REMARK   90  A    between atoms: _219  and  _221
REMARK   91  A    between atoms: _221  and  _222
REMARK   92  A    between atoms: _221  and  _224
REMARK   93  A    between atoms: _224  and  _225
REMARK   94  A    between atoms: _228  and  _230
REMARK   95  A    between atoms: _230  and  _231
REMARK   96  A    between atoms: _230  and  _233
REMARK   97  A    between atoms: _233  and  _234
REMARK   98  A    between atoms: _240  and  _242
REMARK   99  A    between atoms: _242  and  _243
REMARK  100  A    between atoms: _242  and  _245
REMARK  101  A    between atoms: _245  and  _246
REMARK  102  A    between atoms: _251  and  _252
REMARK  103  A    between atoms: _254  and  _256
REMARK  104  A    between atoms: _256  and  _257
REMARK  105  A    between atoms: _256  and  _259
REMARK  106  A    between atoms: _259  and  _260
REMARK  107  A    between atoms: _263  and  _265
REMARK  108  A    between atoms: _265  and  _266
REMARK  109  A    between atoms: _265  and  _268
REMARK  110  A    between atoms: _268  and  _269
REMARK  111  A    between atoms: _272  and  _274
REMARK  112  A    between atoms: _274  and  _275
REMARK  113  A    between atoms: _278  and  _280
REMARK  114  A    between atoms: _280  and  _281
REMARK  115  A    between atoms: _280  and  _283
REMARK  116  A    between atoms: _285  and  _287
REMARK  117  A    between atoms: _287  and  _288
REMARK  118  A    between atoms: _290  and  _292
REMARK  119  A    between atoms: _292  and  _293
REMARK  120  A    between atoms: _292  and  _295
REMARK  121  A    between atoms: _295  and  _296
REMARK  122  A    between atoms: _299  and  _301
REMARK  123  A    between atoms: _301  and  _302
REMARK  124  A    between atoms: _301  and  _304
REMARK  125  A    between atoms: _304  and  _305
REMARK  126  A    between atoms: _311  and  _312
REMARK  127  A    between atoms: _317  and  _319
REMARK  128  A    between atoms: _319  and  _320
REMARK  129  A    between atoms: _319  and  _322
REMARK  130  A    between atoms: _322  and  _323
REMARK  131  A    between atoms: _325  and  _327
REMARK  132  A    between atoms: _327  and  _328
REMARK  133  A    between atoms: _327  and  _330
REMARK  134  A    between atoms: _330  and  _331
REMARK  135  A    between atoms: _334  and  _336
REMARK  136  A    between atoms: _336  and  _337
REMARK  137  A    between atoms: _336  and  _339
REMARK  138  A    between atoms: _339  and  _340
REMARK  139  A    between atoms: _343  and  _345
REMARK  140  A    between atoms: _345  and  _346
REMARK  141  A    between atoms: _345  and  _348
REMARK  142  A    between atoms: _348  and  _349
REMARK  143  A    between atoms: _352  and  _354
REMARK  144  A    between atoms: _354  and  _355
REMARK  145  A    between atoms: _354  and  _357
REMARK  146  A    between atoms: _357  and  _358
REMARK  147  A    between atoms: _361  and  _363
REMARK  148  A    between atoms: _363  and  _364
REMARK  149  A    between atoms: _363  and  _366
REMARK  150  A    between atoms: _369  and  _371
REMARK  151  A    between atoms: _371  and  _372
REMARK  152  A    between atoms: _375  and  _377
REMARK  153  A    between atoms: _377  and  _378
REMARK  154  A    between atoms: _377  and  _380
REMARK  155  A    between atoms: _380  and  _381
REMARK  156  A    between atoms: _384  and  _386
REMARK  157  A    between atoms: _386  and  _387
REMARK  158  A    between atoms: _386  and  _389
REMARK  159  A    between atoms: _389  and  _390
REMARK  160  A    between atoms: _393  and  _395
REMARK  161  A    between atoms: _395  and  _396
REMARK  162  A    between atoms: _395  and  _398
REMARK  163  A    between atoms: _398  and  _399
REMARK  164  A    between atoms: _402  and  _404
REMARK  165  A    between atoms: _404  and  _405
REMARK  166  A    between atoms: _404  and  _407
REMARK  167  A    between atoms: _407  and  _408
REMARK  168  A    between atoms: _408  and  _409
REMARK  169  A    between atoms: _412  and  _414
REMARK  170  A    between atoms: _414  and  _415
REMARK  171  A    between atoms: _414  and  _417
REMARK  172  A    between atoms: _417  and  _418
REMARK  173  A    between atoms: _421  and  _423
REMARK  174  A    between atoms: _423  and  _424
REMARK  175  A    between atoms: _423  and  _426
REMARK  176  A    between atoms: _426  and  _427
REMARK  177  A    between atoms: _430  and  _432
REMARK  178  A    between atoms: _432  and  _433
REMARK  179  A    between atoms: _432  and  _435
REMARK  180  A    between atoms: _435  and  _436
REMARK  181  A    between atoms: _439  and  _441
REMARK  182  A    between atoms: _441  and  _442
REMARK  183  A    between atoms: _441  and  _444
REMARK  184  A    between atoms: _444  and  _445
REMARK  185  A    between atoms: _448  and  _450
REMARK  186  A    between atoms: _450  and  _451
REMARK  187  A    between atoms: _450  and  _453
REMARK  188  A    between atoms: _453  and  _454
REMARK  189  A    between atoms: _454  and  _455
REMARK  190  A    between atoms: _455  and  _456
REMARK  191  A    between atoms: _456  and  _457
REMARK  192  A    between atoms: _461  and  _463
REMARK  193  A    between atoms: _463  and  _464
REMARK  194  A    between atoms: _463  and  _466
REMARK  195  A    between atoms: _466  and  _467
REMARK  196  A    between atoms: _470  and  _472
REMARK  197  A    between atoms: _472  and  _473
REMARK  198  A    between atoms: _472  and  _475
REMARK  199  A    between atoms: _475  and  _476
REMARK  200  A    between atoms: _479  and  _481
REMARK  201  A    between atoms: _481  and  _482
REMARK  202  A    between atoms: _481  and  _484
REMARK  203  A    between atoms: _486  and  _488
REMARK  204  A    between atoms: _488  and  _489
REMARK  205  A    between atoms: _488  and  _491
REMARK  206  A    between atoms: _491  and  _492
REMARK  207  A    between atoms: _495  and  _497
REMARK  208  A    between atoms: _497  and  _498
REMARK  209  A    between atoms: _497  and  _500
REMARK  210  A    between atoms: _500  and  _501
REMARK  211  A    between atoms: _501  and  _502
REMARK  212  A    between atoms: _507  and  _509
REMARK  213  A    between atoms: _509  and  _510
REMARK  214  A    between atoms: _509  and  _512
REMARK  215  A    between atoms: _512  and  _513
REMARK  216  A    between atoms: _513  and  _514
REMARK  217  A    between atoms: _519  and  _521
REMARK  218  A    between atoms: _521  and  _522
REMARK  219  A    between atoms: _521  and  _524
REMARK  220  A    between atoms: _524  and  _525
REMARK  221  A    between atoms: _527  and  _529
REMARK  222  A    between atoms: _529  and  _530
REMARK  223  A    between atoms: _529  and  _532
REMARK  224  A    between atoms: _532  and  _533
REMARK  225  A    between atoms: _536  and  _538
REMARK  226  A    between atoms: _538  and  _539
REMARK  227  A    between atoms: _538  and  _541
REMARK  228  A    between atoms: _541  and  _542
REMARK  229  A    between atoms: _542  and  _543
REMARK                            x       y       z     vdW  Elec       q    Type
REMARK                         _______ _______ _______ _____ _____    ______ ____
ROOT
ATOM      1  O   HOH     1       5.855  -7.195  28.950  0.00  0.00    +0.000 OA
ENDROOT
TORSDOF 0
REMARK  Name = ../refined-set-2016/3lcu/3lcu_pocket.pdb
REMARK  229 active torsions:
REMARK  status: ('A' for Active; 'I' for Inactive)
REMARK    1  A    between atoms: _1  and  _3
REMARK    2  A    between atoms: _3  and  _4
REMARK    3  A    between atoms: _3  and  _6
REMARK    4  A    between atoms: _9  and  _11
REMARK    5  A    between atoms: _11  and  _12
REMARK    6  A    between atoms: _15  and  _17
REMARK    7  A    between atoms: _17  and  _18
REMARK    8  A    between atoms: _17  and  _20
REMARK    9  A    between atoms: _20  and  _21
REMARK   10  A    between atoms: _24  and  _26
REMARK   11  A    between atoms: _26  and  _27
REMARK   12  A    between atoms: _26  and  _29
REMARK   13  A    between atoms: _29  and  _30
REMARK   14  A    between atoms: _30  and  _31
REMARK   15  A    between atoms: _31  and  _32
REMARK   16  A    between atoms: _41  and  _43
REMARK   17  A    between atoms: _43  and  _44
REMARK   18  A    between atoms: _43  and  _46
REMARK   19  A    between atoms: _46  and  _47
REMARK   20  A    between atoms: _50  and  _52
REMARK   21  A    between atoms: _52  and  _53
REMARK   22  A    between atoms: _55  and  _57
REMARK   23  A    between atoms: _57  and  _58
REMARK   24  A    between atoms: _57  and  _60
REMARK   25  A    between atoms: _60  and  _61
REMARK   26  A    between atoms: _64  and  _66
REMARK   27  A    between atoms: _66  and  _67
REMARK   28  A    between atoms: _66  and  _69
REMARK   29  A    between atoms: _69  and  _70
REMARK   30  A    between atoms: _70  and  _71
REMARK   31  A    between atoms: _74  and  _76
REMARK   32  A    between atoms: _76  and  _77
REMARK   33  A    between atoms: _76  and  _79
REMARK   34  A    between atoms: _79  and  _80
REMARK   35  A    between atoms: _83  and  _85
REMARK   36  A    between atoms: _85  and  _86
REMARK   37  A    between atoms: _85  and  _88
REMARK   38  A    between atoms: _88  and  _89
REMARK   39  A    between atoms: _94  and  _95
REMARK   40  A    between atoms: _97  and  _99
REMARK   41  A    between atoms: _99  and  _100
REMARK   42  A    between atoms: _102  and  _104
REMARK   43  A    between atoms: _104  and  _105
REMARK   44  A    between atoms: _108  and  _110
REMARK   45  A    between atoms: _110  and  _111
REMARK   46  A    between atoms: _110  and  _113
REMARK   47  A    between atoms: _113  and  _114
REMARK   48  A    between atoms: _120  and  _122
REMARK   49  A    between atoms: _122  and  _123
REMARK   50  A    between atoms: _122  and  _125
REMARK   51  A    between atoms: _125  and  _126
REMARK   52  A    between atoms: _129  and  _131
REMARK   53  A    between atoms: _131  and  _132
REMARK   54  A    between atoms: _131  and  _134
REMARK   55  A    between atoms: _134  and  _135
REMARK   56  A    between atoms: _135  and  _136
REMARK   57  A    between atoms: _138  and  _140
REMARK   58  A    between atoms: _140  and  _141
REMARK   59  A    between atoms: _140  and  _143
REMARK   60  A    between atoms: _143  and  _144
REMARK   61  A    between atoms: _149  and  _151
REMARK   62  A    between atoms: _151  and  _152
REMARK   63  A    between atoms: _151  and  _154
REMARK   64  A    between atoms: _154  and  _155
REMARK   65  A    between atoms: _158  and  _160
REMARK   66  A    between atoms: _160  and  _161
REMARK   67  A    between atoms: _160  and  _163
REMARK   68  A    between atoms: _163  and  _164
REMARK   69  A    between atoms: _166  and  _168
REMARK   70  A    between atoms: _168  and  _169
REMARK   71  A    between atoms: _168  and  _171
REMARK   72  A    between atoms: _171  and  _172
REMARK   73  A    between atoms: _175  and  _177
REMARK   74  A    between atoms: _177  and  _178
REMARK   75  A    between atoms: _177  and  _180
REMARK   76  A    between atoms: _180  and  _181
REMARK   77  A    between atoms: _181  and  _182
REMARK   78  A    between atoms: _182  and  _183
REMARK   79  A    between atoms: _192  and  _194
REMARK   80  A    between atoms: _194  and  _195
REMARK   81  A    between atoms: _194  and  _197
REMARK   82  A    between atoms: _197  and  _198
REMARK   83  A    between atoms: _198  and  _199
REMARK   84  A    between atoms: _202  and  _204
REMARK   85  A    between atoms: _204  and  _205
REMARK   86  A    between atoms: _204  and  _207
REMARK   87  A    between atoms: _207  and  _208
REMARK   88  A    between atoms: _208  and  _209
REMARK   89  A    between atoms: _209  and  _210
REMARK   90  A    between atoms: _219  and  _221
REMARK   91  A    between atoms: _221  and  _222
REMARK   92  A    between atoms: _221  and  _224
REMARK   93  A    between atoms: _224  and  _225
REMARK   94  A    between atoms: _228  and  _230
REMARK   95  A    between atoms: _230  and  _231
REMARK   96  A    between atoms: _230  and  _233
REMARK   97  A    between atoms: _233  and  _234
REMARK   98  A    between atoms: _240  and  _242
REMARK   99  A    between atoms: _242  and  _243
REMARK  100  A    between atoms: _242  and  _245
REMARK  101  A    between atoms: _245  and  _246
REMARK  102  A    between atoms: _251  and  _252
REMARK  103  A    between atoms: _254  and  _256
REMARK  104  A    between atoms: _256  and  _257
REMARK  105  A    between atoms: _256  and  _259
REMARK  106  A    between atoms: _259  and  _260
REMARK  107  A    between atoms: _263  and  _265
REMARK  108  A    between atoms: _265  and  _266
REMARK  109  A    between atoms: _265  and  _268
REMARK  110  A    between atoms: _268  and  _269
REMARK  111  A    between atoms: _272  and  _274
REMARK  112  A    between atoms: _274  and  _275
REMARK  113  A    between atoms: _278  and  _280
REMARK  114  A    between atoms: _280  and  _281
REMARK  115  A    between atoms: _280  and  _283
REMARK  116  A    between atoms: _285  and  _287
REMARK  117  A    between atoms: _287  and  _288
REMARK  118  A    between atoms: _290  and  _292
REMARK  119  A    between atoms: _292  and  _293
REMARK  120  A    between atoms: _292  and  _295
REMARK  121  A    between atoms: _295  and  _296
REMARK  122  A    between atoms: _299  and  _301
REMARK  123  A    between atoms: _301  and  _302
REMARK  124  A    between atoms: _301  and  _304
REMARK  125  A    between atoms: _304  and  _305
REMARK  126  A    between atoms: _311  and  _312
REMARK  127  A    between atoms: _317  and  _319
REMARK  128  A    between atoms: _319  and  _320
REMARK  129  A    between atoms: _319  and  _322
REMARK  130  A    between atoms: _322  and  _323
REMARK  131  A    between atoms: _325  and  _327
REMARK  132  A    between atoms: _327  and  _328
REMARK  133  A    between atoms: _327  and  _330
REMARK  134  A    between atoms: _330  and  _331
REMARK  135  A    between atoms: _334  and  _336
REMARK  136  A    between atoms: _336  and  _337
REMARK  137  A    between atoms: _336  and  _339
REMARK  138  A    between atoms: _339  and  _340
REMARK  139  A    between atoms: _343  and  _345
REMARK  140  A    between atoms: _345  and  _346
REMARK  141  A    between atoms: _345  and  _348
REMARK  142  A    between atoms: _348  and  _349
REMARK  143  A    between atoms: _352  and  _354
REMARK  144  A    between atoms: _354  and  _355
REMARK  145  A    between atoms: _354  and  _357
REMARK  146  A    between atoms: _357  and  _358
REMARK  147  A    between atoms: _361  and  _363
REMARK  148  A    between atoms: _363  and  _364
REMARK  149  A    between atoms: _363  and  _366
REMARK  150  A    between atoms: _369  and  _371
REMARK  151  A    between atoms: _371  and  _372
REMARK  152  A    between atoms: _375  and  _377
REMARK  153  A    between atoms: _377  and  _378
REMARK  154  A    between atoms: _377  and  _380
REMARK  155  A    between atoms: _380  and  _381
REMARK  156  A    between atoms: _384  and  _386
REMARK  157  A    between atoms: _386  and  _387
REMARK  158  A    between atoms: _386  and  _389
REMARK  159  A    between atoms: _389  and  _390
REMARK  160  A    between atoms: _393  and  _395
REMARK  161  A    between atoms: _395  and  _396
REMARK  162  A    between atoms: _395  and  _398
REMARK  163  A    between atoms: _398  and  _399
REMARK  164  A    between atoms: _402  and  _404
REMARK  165  A    between atoms: _404  and  _405
REMARK  166  A    between atoms: _404  and  _407
REMARK  167  A    between atoms: _407  and  _408
REMARK  168  A    between atoms: _408  and  _409
REMARK  169  A    between atoms: _412  and  _414
REMARK  170  A    between atoms: _414  and  _415
REMARK  171  A    between atoms: _414  and  _417
REMARK  172  A    between atoms: _417  and  _418
REMARK  173  A    between atoms: _421  and  _423
REMARK  174  A    between atoms: _423  and  _424
REMARK  175  A    between atoms: _423  and  _426
REMARK  176  A    between atoms: _426  and  _427
REMARK  177  A    between atoms: _430  and  _432
REMARK  178  A    between atoms: _432  and  _433
REMARK  179  A    between atoms: _432  and  _435
REMARK  180  A    between atoms: _435  and  _436
REMARK  181  A    between atoms: _439  and  _441
REMARK  182  A    between atoms: _441  and  _442
REMARK  183  A    between atoms: _441  and  _444
REMARK  184  A    between atoms: _444  and  _445
REMARK  185  A    between atoms: _448  and  _450
REMARK  186  A    between atoms: _450  and  _451
REMARK  187  A    between atoms: _450  and  _453
REMARK  188  A    between atoms: _453  and  _454
REMARK  189  A    between atoms: _454  and  _455
REMARK  190  A    between atoms: _455  and  _456
REMARK  191  A    between atoms: _456  and  _457
REMARK  192  A    between atoms: _461  and  _463
REMARK  193  A    between atoms: _463  and  _464
REMARK  194  A    between atoms: _463  and  _466
REMARK  195  A    between atoms: _466  and  _467
REMARK  196  A    between atoms: _470  and  _472
REMARK  197  A    between atoms: _472  and  _473
REMARK  198  A    between atoms: _472  and  _475
REMARK  199  A    between atoms: _475  and  _476
REMARK  200  A    between atoms: _479  and  _481
REMARK  201  A    between atoms: _481  and  _482
REMARK  202  A    between atoms: _481  and  _484
REMARK  203  A    between atoms: _486  and  _488
REMARK  204  A    between atoms: _488  and  _489
REMARK  205  A    between atoms: _488  and  _491
REMARK  206  A    between atoms: _491  and  _492
REMARK  207  A    between atoms: _495  and  _497
REMARK  208  A    between atoms: _497  and  _498
REMARK  209  A    between atoms: _497  and  _500
REMARK  210  A    between atoms: _500  and  _501
REMARK  211  A    between atoms: _501  and  _502
REMARK  212  A    between atoms: _507  and  _509
REMARK  213  A    between atoms: _509  and  _510
REMARK  214  A    between atoms: _509  and  _512
REMARK  215  A    between atoms: _512  and  _513
REMARK  216  A    between atoms: _513  and  _514
REMARK  217  A    between atoms: _519  and  _521
REMARK  218  A    between atoms: _521  and  _522
REMARK  219  A    between atoms: _521  and  _524
REMARK  220  A    between atoms: _524  and  _525
REMARK  221  A    between atoms: _527  and  _529
REMARK  222  A    between atoms: _529  and  _530
REMARK  223  A    between atoms: _529  and  _532
REMARK  224  A    between atoms: _532  and  _533
REMARK  225  A    between atoms: _536  and  _538
REMARK  226  A    between atoms: _538  and  _539
REMARK  227  A    between atoms: _538  and  _541
REMARK  228  A    between atoms: _541  and  _542
REMARK  229  A    between atoms: _542  and  _543
REMARK                            x       y       z     vdW  Elec       q    Type
REMARK                         _______ _______ _______ _____ _____    ______ ____
ROOT
ATOM      1  O   HOH     1       6.145  -0.196  11.358  0.00  0.00    +0.000 OA
ENDROOT
TORSDOF 0
REMARK  Name = ../refined-set-2016/3lcu/3lcu_pocket.pdb
REMARK  229 active torsions:
REMARK  status: ('A' for Active; 'I' for Inactive)
REMARK    1  A    between atoms: _1  and  _3
REMARK    2  A    between atoms: _3  and  _4
REMARK    3  A    between atoms: _3  and  _6
REMARK    4  A    between atoms: _9  and  _11
REMARK    5  A    between atoms: _11  and  _12
REMARK    6  A    between atoms: _15  and  _17
REMARK    7  A    between atoms: _17  and  _18
REMARK    8  A    between atoms: _17  and  _20
REMARK    9  A    between atoms: _20  and  _21
REMARK   10  A    between atoms: _24  and  _26
REMARK   11  A    between atoms: _26  and  _27
REMARK   12  A    between atoms: _26  and  _29
REMARK   13  A    between atoms: _29  and  _30
REMARK   14  A    between atoms: _30  and  _31
REMARK   15  A    between atoms: _31  and  _32
REMARK   16  A    between atoms: _41  and  _43
REMARK   17  A    between atoms: _43  and  _44
REMARK   18  A    between atoms: _43  and  _46
REMARK   19  A    between atoms: _46  and  _47
REMARK   20  A    between atoms: _50  and  _52
REMARK   21  A    between atoms: _52  and  _53
REMARK   22  A    between atoms: _55  and  _57
REMARK   23  A    between atoms: _57  and  _58
REMARK   24  A    between atoms: _57  and  _60
REMARK   25  A    between atoms: _60  and  _61
REMARK   26  A    between atoms: _64  and  _66
REMARK   27  A    between atoms: _66  and  _67
REMARK   28  A    between atoms: _66  and  _69
REMARK   29  A    between atoms: _69  and  _70
REMARK   30  A    between atoms: _70  and  _71
REMARK   31  A    between atoms: _74  and  _76
REMARK   32  A    between atoms: _76  and  _77
REMARK   33  A    between atoms: _76  and  _79
REMARK   34  A    between atoms: _79  and  _80
REMARK   35  A    between atoms: _83  and  _85
REMARK   36  A    between atoms: _85  and  _86
REMARK   37  A    between atoms: _85  and  _88
REMARK   38  A    between atoms: _88  and  _89
REMARK   39  A    between atoms: _94  and  _95
REMARK   40  A    between atoms: _97  and  _99
REMARK   41  A    between atoms: _99  and  _100
REMARK   42  A    between atoms: _102  and  _104
REMARK   43  A    between atoms: _104  and  _105
REMARK   44  A    between atoms: _108  and  _110
REMARK   45  A    between atoms: _110  and  _111
REMARK   46  A    between atoms: _110  and  _113
REMARK   47  A    between atoms: _113  and  _114
REMARK   48  A    between atoms: _120  and  _122
REMARK   49  A    between atoms: _122  and  _123
REMARK   50  A    between atoms: _122  and  _125
REMARK   51  A    between atoms: _125  and  _126
REMARK   52  A    between atoms: _129  and  _131
REMARK   53  A    between atoms: _131  and  _132
REMARK   54  A    between atoms: _131  and  _134
REMARK   55  A    between atoms: _134  and  _135
REMARK   56  A    between atoms: _135  and  _136
REMARK   57  A    between atoms: _138  and  _140
REMARK   58  A    between atoms: _140  and  _141
REMARK   59  A    between atoms: _140  and  _143
REMARK   60  A    between atoms: _143  and  _144
REMARK   61  A    between atoms: _149  and  _151
REMARK   62  A    between atoms: _151  and  _152
REMARK   63  A    between atoms: _151  and  _154
REMARK   64  A    between atoms: _154  and  _155
REMARK   65  A    between atoms: _158  and  _160
REMARK   66  A    between atoms: _160  and  _161
REMARK   67  A    between atoms: _160  and  _163
REMARK   68  A    between atoms: _163  and  _164
REMARK   69  A    between atoms: _166  and  _168
REMARK   70  A    between atoms: _168  and  _169
REMARK   71  A    between atoms: _168  and  _171
REMARK   72  A    between atoms: _171  and  _172
REMARK   73  A    between atoms: _175  and  _177
REMARK   74  A    between atoms: _177  and  _178
REMARK   75  A    between atoms: _177  and  _180
REMARK   76  A    between atoms: _180  and  _181
REMARK   77  A    between atoms: _181  and  _182
REMARK   78  A    between atoms: _182  and  _183
REMARK   79  A    between atoms: _192  and  _194
REMARK   80  A    between atoms: _194  and  _195
REMARK   81  A    between atoms: _194  and  _197
REMARK   82  A    between atoms: _197  and  _198
REMARK   83  A    between atoms: _198  and  _199
REMARK   84  A    between atoms: _202  and  _204
REMARK   85  A    between atoms: _204  and  _205
REMARK   86  A    between atoms: _204  and  _207
REMARK   87  A    between atoms: _207  and  _208
REMARK   88  A    between atoms: _208  and  _209
REMARK   89  A    between atoms: _209  and  _210
REMARK   90  A    between atoms: _219  and  _221
REMARK   91  A    between atoms: _221  and  _222
REMARK   92  A    between atoms: _221  and  _224
REMARK   93  A    between atoms: _224  and  _225
REMARK   94  A    between atoms: _228  and  _230
REMARK   95  A    between atoms: _230  and  _231
REMARK   96  A    between atoms: _230  and  _233
REMARK   97  A    between atoms: _233  and  _234
REMARK   98  A    between atoms: _240  and  _242
REMARK   99  A    between atoms: _242  and  _243
REMARK  100  A    between atoms: _242  and  _245
REMARK  101  A    between atoms: _245  and  _246
REMARK  102  A    between atoms: _251  and  _252
REMARK  103  A    between atoms: _254  and  _256
REMARK  104  A    between atoms: _256  and  _257
REMARK  105  A    between atoms: _256  and  _259
REMARK  106  A    between atoms: _259  and  _260
REMARK  107  A    between atoms: _263  and  _265
REMARK  108  A    between atoms: _265  and  _266
REMARK  109  A    between atoms: _265  and  _268
REMARK  110  A    between atoms: _268  and  _269
REMARK  111  A    between atoms: _272  and  _274
REMARK  112  A    between atoms: _274  and  _275
REMARK  113  A    between atoms: _278  and  _280
REMARK  114  A    between atoms: _280  and  _281
REMARK  115  A    between atoms: _280  and  _283
REMARK  116  A    between atoms: _285  and  _287
REMARK  117  A    between atoms: _287  and  _288
REMARK  118  A    between atoms: _290  and  _292
REMARK  119  A    between atoms: _292  and  _293
REMARK  120  A    between atoms: _292  and  _295
REMARK  121  A    between atoms: _295  and  _296
REMARK  122  A    between atoms: _299  and  _301
REMARK  123  A    between atoms: _301  and  _302
REMARK  124  A    between atoms: _301  and  _304
REMARK  125  A    between atoms: _304  and  _305
REMARK  126  A    between atoms: _311  and  _312
REMARK  127  A    between atoms: _317  and  _319
REMARK  128  A    between atoms: _319  and  _320
REMARK  129  A    between atoms: _319  and  _322
REMARK  130  A    between atoms: _322  and  _323
REMARK  131  A    between atoms: _325  and  _327
REMARK  132  A    between atoms: _327  and  _328
REMARK  133  A    between atoms: _327  and  _330
REMARK  134  A    between atoms: _330  and  _331
REMARK  135  A    between atoms: _334  and  _336
REMARK  136  A    between atoms: _336  and  _337
REMARK  137  A    between atoms: _336  and  _339
REMARK  138  A    between atoms: _339  and  _340
REMARK  139  A    between atoms: _343  and  _345
REMARK  140  A    between atoms: _345  and  _346
REMARK  141  A    between atoms: _345  and  _348
REMARK  142  A    between atoms: _348  and  _349
REMARK  143  A    between atoms: _352  and  _354
REMARK  144  A    between atoms: _354  and  _355
REMARK  145  A    between atoms: _354  and  _357
REMARK  146  A    between atoms: _357  and  _358
REMARK  147  A    between atoms: _361  and  _363
REMARK  148  A    between atoms: _363  and  _364
REMARK  149  A    between atoms: _363  and  _366
REMARK  150  A    between atoms: _369  and  _371
REMARK  151  A    between atoms: _371  and  _372
REMARK  152  A    between atoms: _375  and  _377
REMARK  153  A    between atoms: _377  and  _378
REMARK  154  A    between atoms: _377  and  _380
REMARK  155  A    between atoms: _380  and  _381
REMARK  156  A    between atoms: _384  and  _386
REMARK  157  A    between atoms: _386  and  _387
REMARK  158  A    between atoms: _386  and  _389
REMARK  159  A    between atoms: _389  and  _390
REMARK  160  A    between atoms: _393  and  _395
REMARK  161  A    between atoms: _395  and  _396
REMARK  162  A    between atoms: _395  and  _398
REMARK  163  A    between atoms: _398  and  _399
REMARK  164  A    between atoms: _402  and  _404
REMARK  165  A    between atoms: _404  and  _405
REMARK  166  A    between atoms: _404  and  _407
REMARK  167  A    between atoms: _407  and  _408
REMARK  168  A    between atoms: _408  and  _409
REMARK  169  A    between atoms: _412  and  _414
REMARK  170  A    between atoms: _414  and  _415
REMARK  171  A    between atoms: _414  and  _417
REMARK  172  A    between atoms: _417  and  _418
REMARK  173  A    between atoms: _421  and  _423
REMARK  174  A    between atoms: _423  and  _424
REMARK  175  A    between atoms: _423  and  _426
REMARK  176  A    between atoms: _426  and  _427
REMARK  177  A    between atoms: _430  and  _432
REMARK  178  A    between atoms: _432  and  _433
REMARK  179  A    between atoms: _432  and  _435
REMARK  180  A    between atoms: _435  and  _436
REMARK  181  A    between atoms: _439  and  _441
REMARK  182  A    between atoms: _441  and  _442
REMARK  183  A    between atoms: _441  and  _444
REMARK  184  A    between atoms: _444  and  _445
REMARK  185  A    between atoms: _448  and  _450
REMARK  186  A    between atoms: _450  and  _451
REMARK  187  A    between atoms: _450  and  _453
REMARK  188  A    between atoms: _453  and  _454
REMARK  189  A    between atoms: _454  and  _455
REMARK  190  A    between atoms: _455  and  _456
REMARK  191  A    between atoms: _456  and  _457
REMARK  192  A    between atoms: _461  and  _463
REMARK  193  A    between atoms: _463  and  _464
REMARK  194  A    between atoms: _463  and  _466
REMARK  195  A    between atoms: _466  and  _467
REMARK  196  A    between atoms: _470  and  _472
REMARK  197  A    between atoms: _472  and  _473
REMARK  198  A    between atoms: _472  and  _475
REMARK  199  A    between atoms: _475  and  _476
REMARK  200  A    between atoms: _479  and  _481
REMARK  201  A    between atoms: _481  and  _482
REMARK  202  A    between atoms: _481  and  _484
REMARK  203  A    between atoms: _486  and  _488
REMARK  204  A    between atoms: _488  and  _489
REMARK  205  A    between atoms: _488  and  _491
REMARK  206  A    between atoms: _491  and  _492
REMARK  207  A    between atoms: _495  and  _497
REMARK  208  A    between atoms: _497  and  _498
REMARK  209  A    between atoms: _497  and  _500
REMARK  210  A    between atoms: _500  and  _501
REMARK  211  A    between atoms: _501  and  _502
REMARK  212  A    between atoms: _507  and  _509
REMARK  213  A    between atoms: _509  and  _510
REMARK  214  A    between atoms: _509  and  _512
REMARK  215  A    between atoms: _512  and  _513
REMARK  216  A    between atoms: _513  and  _514
REMARK  217  A    between atoms: _519  and  _521
REMARK  218  A    between atoms: _521  and  _522
REMARK  219  A    between atoms: _521  and  _524
REMARK  220  A    between atoms: _524  and  _525
REMARK  221  A    between atoms: _527  and  _529
REMARK  222  A    between atoms: _529  and  _530
REMARK  223  A    between atoms: _529  and  _532
REMARK  224  A    between atoms: _532  and  _533
REMARK  225  A    between atoms: _536  and  _538
REMARK  226  A    between atoms: _538  and  _539
REMARK  227  A    between atoms: _538  and  _541
REMARK  228  A    between atoms: _541  and  _542
REMARK  229  A    between atoms: _542  and  _543
REMARK                            x       y       z     vdW  Elec       q    Type
REMARK                         _______ _______ _______ _____ _____    ______ ____
ROOT
ATOM      1  O   HOH     1      12.340   5.695   7.547  0.00  0.00    +0.000 OA
ENDROOT
TORSDOF 0
REMARK  Name = ../refined-set-2016/3lcu/3lcu_pocket.pdb
REMARK  229 active torsions:
REMARK  status: ('A' for Active; 'I' for Inactive)
REMARK    1  A    between atoms: _1  and  _3
REMARK    2  A    between atoms: _3  and  _4
REMARK    3  A    between atoms: _3  and  _6
REMARK    4  A    between atoms: _9  and  _11
REMARK    5  A    between atoms: _11  and  _12
REMARK    6  A    between atoms: _15  and  _17
REMARK    7  A    between atoms: _17  and  _18
REMARK    8  A    between atoms: _17  and  _20
REMARK    9  A    between atoms: _20  and  _21
REMARK   10  A    between atoms: _24  and  _26
REMARK   11  A    between atoms: _26  and  _27
REMARK   12  A    between atoms: _26  and  _29
REMARK   13  A    between atoms: _29  and  _30
REMARK   14  A    between atoms: _30  and  _31
REMARK   15  A    between atoms: _31  and  _32
REMARK   16  A    between atoms: _41  and  _43
REMARK   17  A    between atoms: _43  and  _44
REMARK   18  A    between atoms: _43  and  _46
REMARK   19  A    between atoms: _46  and  _47
REMARK   20  A    between atoms: _50  and  _52
REMARK   21  A    between atoms: _52  and  _53
REMARK   22  A    between atoms: _55  and  _57
REMARK   23  A    between atoms: _57  and  _58
REMARK   24  A    between atoms: _57  and  _60
REMARK   25  A    between atoms: _60  and  _61
REMARK   26  A    between atoms: _64  and  _66
REMARK   27  A    between atoms: _66  and  _67
REMARK   28  A    between atoms: _66  and  _69
REMARK   29  A    between atoms: _69  and  _70
REMARK   30  A    between atoms: _70  and  _71
REMARK   31  A    between atoms: _74  and  _76
REMARK   32  A    between atoms: _76  and  _77
REMARK   33  A    between atoms: _76  and  _79
REMARK   34  A    between atoms: _79  and  _80
REMARK   35  A    between atoms: _83  and  _85
REMARK   36  A    between atoms: _85  and  _86
REMARK   37  A    between atoms: _85  and  _88
REMARK   38  A    between atoms: _88  and  _89
REMARK   39  A    between atoms: _94  and  _95
REMARK   40  A    between atoms: _97  and  _99
REMARK   41  A    between atoms: _99  and  _100
REMARK   42  A    between atoms: _102  and  _104
REMARK   43  A    between atoms: _104  and  _105
REMARK   44  A    between atoms: _108  and  _110
REMARK   45  A    between atoms: _110  and  _111
REMARK   46  A    between atoms: _110  and  _113
REMARK   47  A    between atoms: _113  and  _114
REMARK   48  A    between atoms: _120  and  _122
REMARK   49  A    between atoms: _122  and  _123
REMARK   50  A    between atoms: _122  and  _125
REMARK   51  A    between atoms: _125  and  _126
REMARK   52  A    between atoms: _129  and  _131
REMARK   53  A    between atoms: _131  and  _132
REMARK   54  A    between atoms: _131  and  _134
REMARK   55  A    between atoms: _134  and  _135
REMARK   56  A    between atoms: _135  and  _136
REMARK   57  A    between atoms: _138  and  _140
REMARK   58  A    between atoms: _140  and  _141
REMARK   59  A    between atoms: _140  and  _143
REMARK   60  A    between atoms: _143  and  _144
REMARK   61  A    between atoms: _149  and  _151
REMARK   62  A    between atoms: _151  and  _152
REMARK   63  A    between atoms: _151  and  _154
REMARK   64  A    between atoms: _154  and  _155
REMARK   65  A    between atoms: _158  and  _160
REMARK   66  A    between atoms: _160  and  _161
REMARK   67  A    between atoms: _160  and  _163
REMARK   68  A    between atoms: _163  and  _164
REMARK   69  A    between atoms: _166  and  _168
REMARK   70  A    between atoms: _168  and  _169
REMARK   71  A    between atoms: _168  and  _171
REMARK   72  A    between atoms: _171  and  _172
REMARK   73  A    between atoms: _175  and  _177
REMARK   74  A    between atoms: _177  and  _178
REMARK   75  A    between atoms: _177  and  _180
REMARK   76  A    between atoms: _180  and  _181
REMARK   77  A    between atoms: _181  and  _182
REMARK   78  A    between atoms: _182  and  _183
REMARK   79  A    between atoms: _192  and  _194
REMARK   80  A    between atoms: _194  and  _195
REMARK   81  A    between atoms: _194  and  _197
REMARK   82  A    between atoms: _197  and  _198
REMARK   83  A    between atoms: _198  and  _199
REMARK   84  A    between atoms: _202  and  _204
REMARK   85  A    between atoms: _204  and  _205
REMARK   86  A    between atoms: _204  and  _207
REMARK   87  A    between atoms: _207  and  _208
REMARK   88  A    between atoms: _208  and  _209
REMARK   89  A    between atoms: _209  and  _210
REMARK   90  A    between atoms: _219  and  _221
REMARK   91  A    between atoms: _221  and  _222
REMARK   92  A    between atoms: _221  and  _224
REMARK   93  A    between atoms: _224  and  _225
REMARK   94  A    between atoms: _228  and  _230
REMARK   95  A    between atoms: _230  and  _231
REMARK   96  A    between atoms: _230  and  _233
REMARK   97  A    between atoms: _233  and  _234
REMARK   98  A    between atoms: _240  and  _242
REMARK   99  A    between atoms: _242  and  _243
REMARK  100  A    between atoms: _242  and  _245
REMARK  101  A    between atoms: _245  and  _246
REMARK  102  A    between atoms: _251  and  _252
REMARK  103  A    between atoms: _254  and  _256
REMARK  104  A    between atoms: _256  and  _257
REMARK  105  A    between atoms: _256  and  _259
REMARK  106  A    between atoms: _259  and  _260
REMARK  107  A    between atoms: _263  and  _265
REMARK  108  A    between atoms: _265  and  _266
REMARK  109  A    between atoms: _265  and  _268
REMARK  110  A    between atoms: _268  and  _269
REMARK  111  A    between atoms: _272  and  _274
REMARK  112  A    between atoms: _274  and  _275
REMARK  113  A    between atoms: _278  and  _280
REMARK  114  A    between atoms: _280  and  _281
REMARK  115  A    between atoms: _280  and  _283
REMARK  116  A    between atoms: _285  and  _287
REMARK  117  A    between atoms: _287  and  _288
REMARK  118  A    between atoms: _290  and  _292
REMARK  119  A    between atoms: _292  and  _293
REMARK  120  A    between atoms: _292  and  _295
REMARK  121  A    between atoms: _295  and  _296
REMARK  122  A    between atoms: _299  and  _301
REMARK  123  A    between atoms: _301  and  _302
REMARK  124  A    between atoms: _301  and  _304
REMARK  125  A    between atoms: _304  and  _305
REMARK  126  A    between atoms: _311  and  _312
REMARK  127  A    between atoms: _317  and  _319
REMARK  128  A    between atoms: _319  and  _320
REMARK  129  A    between atoms: _319  and  _322
REMARK  130  A    between atoms: _322  and  _323
REMARK  131  A    between atoms: _325  and  _327
REMARK  132  A    between atoms: _327  and  _328
REMARK  133  A    between atoms: _327  and  _330
REMARK  134  A    between atoms: _330  and  _331
REMARK  135  A    between atoms: _334  and  _336
REMARK  136  A    between atoms: _336  and  _337
REMARK  137  A    between atoms: _336  and  _339
REMARK  138  A    between atoms: _339  and  _340
REMARK  139  A    between atoms: _343  and  _345
REMARK  140  A    between atoms: _345  and  _346
REMARK  141  A    between atoms: _345  and  _348
REMARK  142  A    between atoms: _348  and  _349
REMARK  143  A    between atoms: _352  and  _354
REMARK  144  A    between atoms: _354  and  _355
REMARK  145  A    between atoms: _354  and  _357
REMARK  146  A    between atoms: _357  and  _358
REMARK  147  A    between atoms: _361  and  _363
REMARK  148  A    between atoms: _363  and  _364
REMARK  149  A    between atoms: _363  and  _366
REMARK  150  A    between atoms: _369  and  _371
REMARK  151  A    between atoms: _371  and  _372
REMARK  152  A    between atoms: _375  and  _377
REMARK  153  A    between atoms: _377  and  _378
REMARK  154  A    between atoms: _377  and  _380
REMARK  155  A    between atoms: _380  and  _381
REMARK  156  A    between atoms: _384  and  _386
REMARK  157  A    between atoms: _386  and  _387
REMARK  158  A    between atoms: _386  and  _389
REMARK  159  A    between atoms: _389  and  _390
REMARK  160  A    between atoms: _393  and  _395
REMARK  161  A    between atoms: _395  and  _396
REMARK  162  A    between atoms: _395  and  _398
REMARK  163  A    between atoms: _398  and  _399
REMARK  164  A    between atoms: _402  and  _404
REMARK  165  A    between atoms: _404  and  _405
REMARK  166  A    between atoms: _404  and  _407
REMARK  167  A    between atoms: _407  and  _408
REMARK  168  A    between atoms: _408  and  _409
REMARK  169  A    between atoms: _412  and  _414
REMARK  170  A    between atoms: _414  and  _415
REMARK  171  A    between atoms: _414  and  _417
REMARK  172  A    between atoms: _417  and  _418
REMARK  173  A    between atoms: _421  and  _423
REMARK  174  A    between atoms: _423  and  _424
REMARK  175  A    between atoms: _423  and  _426
REMARK  176  A    between atoms: _426  and  _427
REMARK  177  A    between atoms: _430  and  _432
REMARK  178  A    between atoms: _432  and  _433
REMARK  179  A    between atoms: _432  and  _435
REMARK  180  A    between atoms: _435  and  _436
REMARK  181  A    between atoms: _439  and  _441
REMARK  182  A    between atoms: _441  and  _442
REMARK  183  A    between atoms: _441  and  _444
REMARK  184  A    between atoms: _444  and  _445
REMARK  185  A    between atoms: _448  and  _450
REMARK  186  A    between atoms: _450  and  _451
REMARK  187  A    between atoms: _450  and  _453
REMARK  188  A    between atoms: _453  and  _454
REMARK  189  A    between atoms: _454  and  _455
REMARK  190  A    between atoms: _455  and  _456
REMARK  191  A    between atoms: _456  and  _457
REMARK  192  A    between atoms: _461  and  _463
REMARK  193  A    between atoms: _463  and  _464
REMARK  194  A    between atoms: _463  and  _466
REMARK  195  A    between atoms: _466  and  _467
REMARK  196  A    between atoms: _470  and  _472
REMARK  197  A    between atoms: _472  and  _473
REMARK  198  A    between atoms: _472  and  _475
REMARK  199  A    between atoms: _475  and  _476
REMARK  200  A    between atoms: _479  and  _481
REMARK  201  A    between atoms: _481  and  _482
REMARK  202  A    between atoms: _481  and  _484
REMARK  203  A    between atoms: _486  and  _488
REMARK  204  A    between atoms: _488  and  _489
REMARK  205  A    between atoms: _488  and  _491
REMARK  206  A    between atoms: _491  and  _492
REMARK  207  A    between atoms: _495  and  _497
REMARK  208  A    between atoms: _497  and  _498
REMARK  209  A    between atoms: _497  and  _500
REMARK  210  A    between atoms: _500  and  _501
REMARK  211  A    between atoms: _501  and  _502
REMARK  212  A    between atoms: _507  and  _509
REMARK  213  A    between atoms: _509  and  _510
REMARK  214  A    between atoms: _509  and  _512
REMARK  215  A    between atoms: _512  and  _513
REMARK  216  A    between atoms: _513  and  _514
REMARK  217  A    between atoms: _519  and  _521
REMARK  218  A    between atoms: _521  and  _522
REMARK  219  A    between atoms: _521  and  _524
REMARK  220  A    between atoms: _524  and  _525
REMARK  221  A    between atoms: _527  and  _529
REMARK  222  A    between atoms: _529  and  _530
REMARK  223  A    between atoms: _529  and  _532
REMARK  224  A    between atoms: _532  and  _533
REMARK  225  A    between atoms: _536  and  _538
REMARK  226  A    between atoms: _538  and  _539
REMARK  227  A    between atoms: _538  and  _541
REMARK  228  A    between atoms: _541  and  _542
REMARK  229  A    between atoms: _542  and  _543
REMARK                            x       y       z     vdW  Elec       q    Type
REMARK                         _______ _______ _______ _____ _____    ______ ____
ROOT
ATOM      1  O   HOH     1       5.384  -3.469  17.048  0.00  0.00    +0.000 OA
ENDROOT
TORSDOF 0
REMARK  Name = ../refined-set-2016/3lcu/3lcu_pocket.pdb
REMARK  229 active torsions:
REMARK  status: ('A' for Active; 'I' for Inactive)
REMARK    1  A    between atoms: _1  and  _3
REMARK    2  A    between atoms: _3  and  _4
REMARK    3  A    between atoms: _3  and  _6
REMARK    4  A    between atoms: _9  and  _11
REMARK    5  A    between atoms: _11  and  _12
REMARK    6  A    between atoms: _15  and  _17
REMARK    7  A    between atoms: _17  and  _18
REMARK    8  A    between atoms: _17  and  _20
REMARK    9  A    between atoms: _20  and  _21
REMARK   10  A    between atoms: _24  and  _26
REMARK   11  A    between atoms: _26  and  _27
REMARK   12  A    between atoms: _26  and  _29
REMARK   13  A    between atoms: _29  and  _30
REMARK   14  A    between atoms: _30  and  _31
REMARK   15  A    between atoms: _31  and  _32
REMARK   16  A    between atoms: _41  and  _43
REMARK   17  A    between atoms: _43  and  _44
REMARK   18  A    between atoms: _43  and  _46
REMARK   19  A    between atoms: _46  and  _47
REMARK   20  A    between atoms: _50  and  _52
REMARK   21  A    between atoms: _52  and  _53
REMARK   22  A    between atoms: _55  and  _57
REMARK   23  A    between atoms: _57  and  _58
REMARK   24  A    between atoms: _57  and  _60
REMARK   25  A    between atoms: _60  and  _61
REMARK   26  A    between atoms: _64  and  _66
REMARK   27  A    between atoms: _66  and  _67
REMARK   28  A    between atoms: _66  and  _69
REMARK   29  A    between atoms: _69  and  _70
REMARK   30  A    between atoms: _70  and  _71
REMARK   31  A    between atoms: _74  and  _76
REMARK   32  A    between atoms: _76  and  _77
REMARK   33  A    between atoms: _76  and  _79
REMARK   34  A    between atoms: _79  and  _80
REMARK   35  A    between atoms: _83  and  _85
REMARK   36  A    between atoms: _85  and  _86
REMARK   37  A    between atoms: _85  and  _88
REMARK   38  A    between atoms: _88  and  _89
REMARK   39  A    between atoms: _94  and  _95
REMARK   40  A    between atoms: _97  and  _99
REMARK   41  A    between atoms: _99  and  _100
REMARK   42  A    between atoms: _102  and  _104
REMARK   43  A    between atoms: _104  and  _105
REMARK   44  A    between atoms: _108  and  _110
REMARK   45  A    between atoms: _110  and  _111
REMARK   46  A    between atoms: _110  and  _113
REMARK   47  A    between atoms: _113  and  _114
REMARK   48  A    between atoms: _120  and  _122
REMARK   49  A    between atoms: _122  and  _123
REMARK   50  A    between atoms: _122  and  _125
REMARK   51  A    between atoms: _125  and  _126
REMARK   52  A    between atoms: _129  and  _131
REMARK   53  A    between atoms: _131  and  _132
REMARK   54  A    between atoms: _131  and  _134
REMARK   55  A    between atoms: _134  and  _135
REMARK   56  A    between atoms: _135  and  _136
REMARK   57  A    between atoms: _138  and  _140
REMARK   58  A    between atoms: _140  and  _141
REMARK   59  A    between atoms: _140  and  _143
REMARK   60  A    between atoms: _143  and  _144
REMARK   61  A    between atoms: _149  and  _151
REMARK   62  A    between atoms: _151  and  _152
REMARK   63  A    between atoms: _151  and  _154
REMARK   64  A    between atoms: _154  and  _155
REMARK   65  A    between atoms: _158  and  _160
REMARK   66  A    between atoms: _160  and  _161
REMARK   67  A    between atoms: _160  and  _163
REMARK   68  A    between atoms: _163  and  _164
REMARK   69  A    between atoms: _166  and  _168
REMARK   70  A    between atoms: _168  and  _169
REMARK   71  A    between atoms: _168  and  _171
REMARK   72  A    between atoms: _171  and  _172
REMARK   73  A    between atoms: _175  and  _177
REMARK   74  A    between atoms: _177  and  _178
REMARK   75  A    between atoms: _177  and  _180
REMARK   76  A    between atoms: _180  and  _181
REMARK   77  A    between atoms: _181  and  _182
REMARK   78  A    between atoms: _182  and  _183
REMARK   79  A    between atoms: _192  and  _194
REMARK   80  A    between atoms: _194  and  _195
REMARK   81  A    between atoms: _194  and  _197
REMARK   82  A    between atoms: _197  and  _198
REMARK   83  A    between atoms: _198  and  _199
REMARK   84  A    between atoms: _202  and  _204
REMARK   85  A    between atoms: _204  and  _205
REMARK   86  A    between atoms: _204  and  _207
REMARK   87  A    between atoms: _207  and  _208
REMARK   88  A    between atoms: _208  and  _209
REMARK   89  A    between atoms: _209  and  _210
REMARK   90  A    between atoms: _219  and  _221
REMARK   91  A    between atoms: _221  and  _222
REMARK   92  A    between atoms: _221  and  _224
REMARK   93  A    between atoms: _224  and  _225
REMARK   94  A    between atoms: _228  and  _230
REMARK   95  A    between atoms: _230  and  _231
REMARK   96  A    between atoms: _230  and  _233
REMARK   97  A    between atoms: _233  and  _234
REMARK   98  A    between atoms: _240  and  _242
REMARK   99  A    between atoms: _242  and  _243
REMARK  100  A    between atoms: _242  and  _245
REMARK  101  A    between atoms: _245  and  _246
REMARK  102  A    between atoms: _251  and  _252
REMARK  103  A    between atoms: _254  and  _256
REMARK  104  A    between atoms: _256  and  _257
REMARK  105  A    between atoms: _256  and  _259
REMARK  106  A    between atoms: _259  and  _260
REMARK  107  A    between atoms: _263  and  _265
REMARK  108  A    between atoms: _265  and  _266
REMARK  109  A    between atoms: _265  and  _268
REMARK  110  A    between atoms: _268  and  _269
REMARK  111  A    between atoms: _272  and  _274
REMARK  112  A    between atoms: _274  and  _275
REMARK  113  A    between atoms: _278  and  _280
REMARK  114  A    between atoms: _280  and  _281
REMARK  115  A    between atoms: _280  and  _283
REMARK  116  A    between atoms: _285  and  _287
REMARK  117  A    between atoms: _287  and  _288
REMARK  118  A    between atoms: _290  and  _292
REMARK  119  A    between atoms: _292  and  _293
REMARK  120  A    between atoms: _292  and  _295
REMARK  121  A    between atoms: _295  and  _296
REMARK  122  A    between atoms: _299  and  _301
REMARK  123  A    between atoms: _301  and  _302
REMARK  124  A    between atoms: _301  and  _304
REMARK  125  A    between atoms: _304  and  _305
REMARK  126  A    between atoms: _311  and  _312
REMARK  127  A    between atoms: _317  and  _319
REMARK  128  A    between atoms: _319  and  _320
REMARK  129  A    between atoms: _319  and  _322
REMARK  130  A    between atoms: _322  and  _323
REMARK  131  A    between atoms: _325  and  _327
REMARK  132  A    between atoms: _327  and  _328
REMARK  133  A    between atoms: _327  and  _330
REMARK  134  A    between atoms: _330  and  _331
REMARK  135  A    between atoms: _334  and  _336
REMARK  136  A    between atoms: _336  and  _337
REMARK  137  A    between atoms: _336  and  _339
REMARK  138  A    between atoms: _339  and  _340
REMARK  139  A    between atoms: _343  and  _345
REMARK  140  A    between atoms: _345  and  _346
REMARK  141  A    between atoms: _345  and  _348
REMARK  142  A    between atoms: _348  and  _349
REMARK  143  A    between atoms: _352  and  _354
REMARK  144  A    between atoms: _354  and  _355
REMARK  145  A    between atoms: _354  and  _357
REMARK  146  A    between atoms: _357  and  _358
REMARK  147  A    between atoms: _361  and  _363
REMARK  148  A    between atoms: _363  and  _364
REMARK  149  A    between atoms: _363  and  _366
REMARK  150  A    between atoms: _369  and  _371
REMARK  151  A    between atoms: _371  and  _372
REMARK  152  A    between atoms: _375  and  _377
REMARK  153  A    between atoms: _377  and  _378
REMARK  154  A    between atoms: _377  and  _380
REMARK  155  A    between atoms: _380  and  _381
REMARK  156  A    between atoms: _384  and  _386
REMARK  157  A    between atoms: _386  and  _387
REMARK  158  A    between atoms: _386  and  _389
REMARK  159  A    between atoms: _389  and  _390
REMARK  160  A    between atoms: _393  and  _395
REMARK  161  A    between atoms: _395  and  _396
REMARK  162  A    between atoms: _395  and  _398
REMARK  163  A    between atoms: _398  and  _399
REMARK  164  A    between atoms: _402  and  _404
REMARK  165  A    between atoms: _404  and  _405
REMARK  166  A    between atoms: _404  and  _407
REMARK  167  A    between atoms: _407  and  _408
REMARK  168  A    between atoms: _408  and  _409
REMARK  169  A    between atoms: _412  and  _414
REMARK  170  A    between atoms: _414  and  _415
REMARK  171  A    between atoms: _414  and  _417
REMARK  172  A    between atoms: _417  and  _418
REMARK  173  A    between atoms: _421  and  _423
REMARK  174  A    between atoms: _423  and  _424
REMARK  175  A    between atoms: _423  and  _426
REMARK  176  A    between atoms: _426  and  _427
REMARK  177  A    between atoms: _430  and  _432
REMARK  178  A    between atoms: _432  and  _433
REMARK  179  A    between atoms: _432  and  _435
REMARK  180  A    between atoms: _435  and  _436
REMARK  181  A    between atoms: _439  and  _441
REMARK  182  A    between atoms: _441  and  _442
REMARK  183  A    between atoms: _441  and  _444
REMARK  184  A    between atoms: _444  and  _445
REMARK  185  A    between atoms: _448  and  _450
REMARK  186  A    between atoms: _450  and  _451
REMARK  187  A    between atoms: _450  and  _453
REMARK  188  A    between atoms: _453  and  _454
REMARK  189  A    between atoms: _454  and  _455
REMARK  190  A    between atoms: _455  and  _456
REMARK  191  A    between atoms: _456  and  _457
REMARK  192  A    between atoms: _461  and  _463
REMARK  193  A    between atoms: _463  and  _464
REMARK  194  A    between atoms: _463  and  _466
REMARK  195  A    between atoms: _466  and  _467
REMARK  196  A    between atoms: _470  and  _472
REMARK  197  A    between atoms: _472  and  _473
REMARK  198  A    between atoms: _472  and  _475
REMARK  199  A    between atoms: _475  and  _476
REMARK  200  A    between atoms: _479  and  _481
REMARK  201  A    between atoms: _481  and  _482
REMARK  202  A    between atoms: _481  and  _484
REMARK  203  A    between atoms: _486  and  _488
REMARK  204  A    between atoms: _488  and  _489
REMARK  205  A    between atoms: _488  and  _491
REMARK  206  A    between atoms: _491  and  _492
REMARK  207  A    between atoms: _495  and  _497
REMARK  208  A    between atoms: _497  and  _498
REMARK  209  A    between atoms: _497  and  _500
REMARK  210  A    between atoms: _500  and  _501
REMARK  211  A    between atoms: _501  and  _502
REMARK  212  A    between atoms: _507  and  _509
REMARK  213  A    between atoms: _509  and  _510
REMARK  214  A    between atoms: _509  and  _512
REMARK  215  A    between atoms: _512  and  _513
REMARK  216  A    between atoms: _513  and  _514
REMARK  217  A    between atoms: _519  and  _521
REMARK  218  A    between atoms: _521  and  _522
REMARK  219  A    between atoms: _521  and  _524
REMARK  220  A    between atoms: _524  and  _525
REMARK  221  A    between atoms: _527  and  _529
REMARK  222  A    between atoms: _529  and  _530
REMARK  223  A    between atoms: _529  and  _532
REMARK  224  A    between atoms: _532  and  _533
REMARK  225  A    between atoms: _536  and  _538
REMARK  226  A    between atoms: _538  and  _539
REMARK  227  A    between atoms: _538  and  _541
REMARK  228  A    between atoms: _541  and  _542
REMARK  229  A    between atoms: _542  and  _543
REMARK                            x       y       z     vdW  Elec       q    Type
REMARK                         _______ _______ _______ _____ _____    ______ ____
ROOT
ATOM      1  O   HOH     1      14.157   4.917  21.782  0.00  0.00    +0.000 OA
ENDROOT
TORSDOF 0
REMARK  Name = ../refined-set-2016/3lcu/3lcu_pocket.pdb
REMARK  229 active torsions:
REMARK  status: ('A' for Active; 'I' for Inactive)
REMARK    1  A    between atoms: _1  and  _3
REMARK    2  A    between atoms: _3  and  _4
REMARK    3  A    between atoms: _3  and  _6
REMARK    4  A    between atoms: _9  and  _11
REMARK    5  A    between atoms: _11  and  _12
REMARK    6  A    between atoms: _15  and  _17
REMARK    7  A    between atoms: _17  and  _18
REMARK    8  A    between atoms: _17  and  _20
REMARK    9  A    between atoms: _20  and  _21
REMARK   10  A    between atoms: _24  and  _26
REMARK   11  A    between atoms: _26  and  _27
REMARK   12  A    between atoms: _26  and  _29
REMARK   13  A    between atoms: _29  and  _30
REMARK   14  A    between atoms: _30  and  _31
REMARK   15  A    between atoms: _31  and  _32
REMARK   16  A    between atoms: _41  and  _43
REMARK   17  A    between atoms: _43  and  _44
REMARK   18  A    between atoms: _43  and  _46
REMARK   19  A    between atoms: _46  and  _47
REMARK   20  A    between atoms: _50  and  _52
REMARK   21  A    between atoms: _52  and  _53
REMARK   22  A    between atoms: _55  and  _57
REMARK   23  A    between atoms: _57  and  _58
REMARK   24  A    between atoms: _57  and  _60
REMARK   25  A    between atoms: _60  and  _61
REMARK   26  A    between atoms: _64  and  _66
REMARK   27  A    between atoms: _66  and  _67
REMARK   28  A    between atoms: _66  and  _69
REMARK   29  A    between atoms: _69  and  _70
REMARK   30  A    between atoms: _70  and  _71
REMARK   31  A    between atoms: _74  and  _76
REMARK   32  A    between atoms: _76  and  _77
REMARK   33  A    between atoms: _76  and  _79
REMARK   34  A    between atoms: _79  and  _80
REMARK   35  A    between atoms: _83  and  _85
REMARK   36  A    between atoms: _85  and  _86
REMARK   37  A    between atoms: _85  and  _88
REMARK   38  A    between atoms: _88  and  _89
REMARK   39  A    between atoms: _94  and  _95
REMARK   40  A    between atoms: _97  and  _99
REMARK   41  A    between atoms: _99  and  _100
REMARK   42  A    between atoms: _102  and  _104
REMARK   43  A    between atoms: _104  and  _105
REMARK   44  A    between atoms: _108  and  _110
REMARK   45  A    between atoms: _110  and  _111
REMARK   46  A    between atoms: _110  and  _113
REMARK   47  A    between atoms: _113  and  _114
REMARK   48  A    between atoms: _120  and  _122
REMARK   49  A    between atoms: _122  and  _123
REMARK   50  A    between atoms: _122  and  _125
REMARK   51  A    between atoms: _125  and  _126
REMARK   52  A    between atoms: _129  and  _131
REMARK   53  A    between atoms: _131  and  _132
REMARK   54  A    between atoms: _131  and  _134
REMARK   55  A    between atoms: _134  and  _135
REMARK   56  A    between atoms: _135  and  _136
REMARK   57  A    between atoms: _138  and  _140
REMARK   58  A    between atoms: _140  and  _141
REMARK   59  A    between atoms: _140  and  _143
REMARK   60  A    between atoms: _143  and  _144
REMARK   61  A    between atoms: _149  and  _151
REMARK   62  A    between atoms: _151  and  _152
REMARK   63  A    between atoms: _151  and  _154
REMARK   64  A    between atoms: _154  and  _155
REMARK   65  A    between atoms: _158  and  _160
REMARK   66  A    between atoms: _160  and  _161
REMARK   67  A    between atoms: _160  and  _163
REMARK   68  A    between atoms: _163  and  _164
REMARK   69  A    between atoms: _166  and  _168
REMARK   70  A    between atoms: _168  and  _169
REMARK   71  A    between atoms: _168  and  _171
REMARK   72  A    between atoms: _171  and  _172
REMARK   73  A    between atoms: _175  and  _177
REMARK   74  A    between atoms: _177  and  _178
REMARK   75  A    between atoms: _177  and  _180
REMARK   76  A    between atoms: _180  and  _181
REMARK   77  A    between atoms: _181  and  _182
REMARK   78  A    between atoms: _182  and  _183
REMARK   79  A    between atoms: _192  and  _194
REMARK   80  A    between atoms: _194  and  _195
REMARK   81  A    between atoms: _194  and  _197
REMARK   82  A    between atoms: _197  and  _198
REMARK   83  A    between atoms: _198  and  _199
REMARK   84  A    between atoms: _202  and  _204
REMARK   85  A    between atoms: _204  and  _205
REMARK   86  A    between atoms: _204  and  _207
REMARK   87  A    between atoms: _207  and  _208
REMARK   88  A    between atoms: _208  and  _209
REMARK   89  A    between atoms: _209  and  _210
REMARK   90  A    between atoms: _219  and  _221
REMARK   91  A    between atoms: _221  and  _222
REMARK   92  A    between atoms: _221  and  _224
REMARK   93  A    between atoms: _224  and  _225
REMARK   94  A    between atoms: _228  and  _230
REMARK   95  A    between atoms: _230  and  _231
REMARK   96  A    between atoms: _230  and  _233
REMARK   97  A    between atoms: _233  and  _234
REMARK   98  A    between atoms: _240  and  _242
REMARK   99  A    between atoms: _242  and  _243
REMARK  100  A    between atoms: _242  and  _245
REMARK  101  A    between atoms: _245  and  _246
REMARK  102  A    between atoms: _251  and  _252
REMARK  103  A    between atoms: _254  and  _256
REMARK  104  A    between atoms: _256  and  _257
REMARK  105  A    between atoms: _256  and  _259
REMARK  106  A    between atoms: _259  and  _260
REMARK  107  A    between atoms: _263  and  _265
REMARK  108  A    between atoms: _265  and  _266
REMARK  109  A    between atoms: _265  and  _268
REMARK  110  A    between atoms: _268  and  _269
REMARK  111  A    between atoms: _272  and  _274
REMARK  112  A    between atoms: _274  and  _275
REMARK  113  A    between atoms: _278  and  _280
REMARK  114  A    between atoms: _280  and  _281
REMARK  115  A    between atoms: _280  and  _283
REMARK  116  A    between atoms: _285  and  _287
REMARK  117  A    between atoms: _287  and  _288
REMARK  118  A    between atoms: _290  and  _292
REMARK  119  A    between atoms: _292  and  _293
REMARK  120  A    between atoms: _292  and  _295
REMARK  121  A    between atoms: _295  and  _296
REMARK  122  A    between atoms: _299  and  _301
REMARK  123  A    between atoms: _301  and  _302
REMARK  124  A    between atoms: _301  and  _304
REMARK  125  A    between atoms: _304  and  _305
REMARK  126  A    between atoms: _311  and  _312
REMARK  127  A    between atoms: _317  and  _319
REMARK  128  A    between atoms: _319  and  _320
REMARK  129  A    between atoms: _319  and  _322
REMARK  130  A    between atoms: _322  and  _323
REMARK  131  A    between atoms: _325  and  _327
REMARK  132  A    between atoms: _327  and  _328
REMARK  133  A    between atoms: _327  and  _330
REMARK  134  A    between atoms: _330  and  _331
REMARK  135  A    between atoms: _334  and  _336
REMARK  136  A    between atoms: _336  and  _337
REMARK  137  A    between atoms: _336  and  _339
REMARK  138  A    between atoms: _339  and  _340
REMARK  139  A    between atoms: _343  and  _345
REMARK  140  A    between atoms: _345  and  _346
REMARK  141  A    between atoms: _345  and  _348
REMARK  142  A    between atoms: _348  and  _349
REMARK  143  A    between atoms: _352  and  _354
REMARK  144  A    between atoms: _354  and  _355
REMARK  145  A    between atoms: _354  and  _357
REMARK  146  A    between atoms: _357  and  _358
REMARK  147  A    between atoms: _361  and  _363
REMARK  148  A    between atoms: _363  and  _364
REMARK  149  A    between atoms: _363  and  _366
REMARK  150  A    between atoms: _369  and  _371
REMARK  151  A    between atoms: _371  and  _372
REMARK  152  A    between atoms: _375  and  _377
REMARK  153  A    between atoms: _377  and  _378
REMARK  154  A    between atoms: _377  and  _380
REMARK  155  A    between atoms: _380  and  _381
REMARK  156  A    between atoms: _384  and  _386
REMARK  157  A    between atoms: _386  and  _387
REMARK  158  A    between atoms: _386  and  _389
REMARK  159  A    between atoms: _389  and  _390
REMARK  160  A    between atoms: _393  and  _395
REMARK  161  A    between atoms: _395  and  _396
REMARK  162  A    between atoms: _395  and  _398
REMARK  163  A    between atoms: _398  and  _399
REMARK  164  A    between atoms: _402  and  _404
REMARK  165  A    between atoms: _404  and  _405
REMARK  166  A    between atoms: _404  and  _407
REMARK  167  A    between atoms: _407  and  _408
REMARK  168  A    between atoms: _408  and  _409
REMARK  169  A    between atoms: _412  and  _414
REMARK  170  A    between atoms: _414  and  _415
REMARK  171  A    between atoms: _414  and  _417
REMARK  172  A    between atoms: _417  and  _418
REMARK  173  A    between atoms: _421  and  _423
REMARK  174  A    between atoms: _423  and  _424
REMARK  175  A    between atoms: _423  and  _426
REMARK  176  A    between atoms: _426  and  _427
REMARK  177  A    between atoms: _430  and  _432
REMARK  178  A    between atoms: _432  and  _433
REMARK  179  A    between atoms: _432  and  _435
REMARK  180  A    between atoms: _435  and  _436
REMARK  181  A    between atoms: _439  and  _441
REMARK  182  A    between atoms: _441  and  _442
REMARK  183  A    between atoms: _441  and  _444
REMARK  184  A    between atoms: _444  and  _445
REMARK  185  A    between atoms: _448  and  _450
REMARK  186  A    between atoms: _450  and  _451
REMARK  187  A    between atoms: _450  and  _453
REMARK  188  A    between atoms: _453  and  _454
REMARK  189  A    between atoms: _454  and  _455
REMARK  190  A    between atoms: _455  and  _456
REMARK  191  A    between atoms: _456  and  _457
REMARK  192  A    between atoms: _461  and  _463
REMARK  193  A    between atoms: _463  and  _464
REMARK  194  A    between atoms: _463  and  _466
REMARK  195  A    between atoms: _466  and  _467
REMARK  196  A    between atoms: _470  and  _472
REMARK  197  A    between atoms: _472  and  _473
REMARK  198  A    between atoms: _472  and  _475
REMARK  199  A    between atoms: _475  and  _476
REMARK  200  A    between atoms: _479  and  _481
REMARK  201  A    between atoms: _481  and  _482
REMARK  202  A    between atoms: _481  and  _484
REMARK  203  A    between atoms: _486  and  _488
REMARK  204  A    between atoms: _488  and  _489
REMARK  205  A    between atoms: _488  and  _491
REMARK  206  A    between atoms: _491  and  _492
REMARK  207  A    between atoms: _495  and  _497
REMARK  208  A    between atoms: _497  and  _498
REMARK  209  A    between atoms: _497  and  _500
REMARK  210  A    between atoms: _500  and  _501
REMARK  211  A    between atoms: _501  and  _502
REMARK  212  A    between atoms: _507  and  _509
REMARK  213  A    between atoms: _509  and  _510
REMARK  214  A    between atoms: _509  and  _512
REMARK  215  A    between atoms: _512  and  _513
REMARK  216  A    between atoms: _513  and  _514
REMARK  217  A    between atoms: _519  and  _521
REMARK  218  A    between atoms: _521  and  _522
REMARK  219  A    between atoms: _521  and  _524
REMARK  220  A    between atoms: _524  and  _525
REMARK  221  A    between atoms: _527  and  _529
REMARK  222  A    between atoms: _529  and  _530
REMARK  223  A    between atoms: _529  and  _532
REMARK  224  A    between atoms: _532  and  _533
REMARK  225  A    between atoms: _536  and  _538
REMARK  226  A    between atoms: _538  and  _539
REMARK  227  A    between atoms: _538  and  _541
REMARK  228  A    between atoms: _541  and  _542
REMARK  229  A    between atoms: _542  and  _543
REMARK                            x       y       z     vdW  Elec       q    Type
REMARK                         _______ _______ _______ _____ _____    ______ ____
ROOT
ATOM      1  O   HOH     1       4.156   4.601  19.743  0.00  0.00    +0.000 OA
ENDROOT
TORSDOF 0
REMARK  Name = ../refined-set-2016/3lcu/3lcu_pocket.pdb
REMARK  229 active torsions:
REMARK  status: ('A' for Active; 'I' for Inactive)
REMARK    1  A    between atoms: _1  and  _3
REMARK    2  A    between atoms: _3  and  _4
REMARK    3  A    between atoms: _3  and  _6
REMARK    4  A    between atoms: _9  and  _11
REMARK    5  A    between atoms: _11  and  _12
REMARK    6  A    between atoms: _15  and  _17
REMARK    7  A    between atoms: _17  and  _18
REMARK    8  A    between atoms: _17  and  _20
REMARK    9  A    between atoms: _20  and  _21
REMARK   10  A    between atoms: _24  and  _26
REMARK   11  A    between atoms: _26  and  _27
REMARK   12  A    between atoms: _26  and  _29
REMARK   13  A    between atoms: _29  and  _30
REMARK   14  A    between atoms: _30  and  _31
REMARK   15  A    between atoms: _31  and  _32
REMARK   16  A    between atoms: _41  and  _43
REMARK   17  A    between atoms: _43  and  _44
REMARK   18  A    between atoms: _43  and  _46
REMARK   19  A    between atoms: _46  and  _47
REMARK   20  A    between atoms: _50  and  _52
REMARK   21  A    between atoms: _52  and  _53
REMARK   22  A    between atoms: _55  and  _57
REMARK   23  A    between atoms: _57  and  _58
REMARK   24  A    between atoms: _57  and  _60
REMARK   25  A    between atoms: _60  and  _61
REMARK   26  A    between atoms: _64  and  _66
REMARK   27  A    between atoms: _66  and  _67
REMARK   28  A    between atoms: _66  and  _69
REMARK   29  A    between atoms: _69  and  _70
REMARK   30  A    between atoms: _70  and  _71
REMARK   31  A    between atoms: _74  and  _76
REMARK   32  A    between atoms: _76  and  _77
REMARK   33  A    between atoms: _76  and  _79
REMARK   34  A    between atoms: _79  and  _80
REMARK   35  A    between atoms: _83  and  _85
REMARK   36  A    between atoms: _85  and  _86
REMARK   37  A    between atoms: _85  and  _88
REMARK   38  A    between atoms: _88  and  _89
REMARK   39  A    between atoms: _94  and  _95
REMARK   40  A    between atoms: _97  and  _99
REMARK   41  A    between atoms: _99  and  _100
REMARK   42  A    between atoms: _102  and  _104
REMARK   43  A    between atoms: _104  and  _105
REMARK   44  A    between atoms: _108  and  _110
REMARK   45  A    between atoms: _110  and  _111
REMARK   46  A    between atoms: _110  and  _113
REMARK   47  A    between atoms: _113  and  _114
REMARK   48  A    between atoms: _120  and  _122
REMARK   49  A    between atoms: _122  and  _123
REMARK   50  A    between atoms: _122  and  _125
REMARK   51  A    between atoms: _125  and  _126
REMARK   52  A    between atoms: _129  and  _131
REMARK   53  A    between atoms: _131  and  _132
REMARK   54  A    between atoms: _131  and  _134
REMARK   55  A    between atoms: _134  and  _135
REMARK   56  A    between atoms: _135  and  _136
REMARK   57  A    between atoms: _138  and  _140
REMARK   58  A    between atoms: _140  and  _141
REMARK   59  A    between atoms: _140  and  _143
REMARK   60  A    between atoms: _143  and  _144
REMARK   61  A    between atoms: _149  and  _151
REMARK   62  A    between atoms: _151  and  _152
REMARK   63  A    between atoms: _151  and  _154
REMARK   64  A    between atoms: _154  and  _155
REMARK   65  A    between atoms: _158  and  _160
REMARK   66  A    between atoms: _160  and  _161
REMARK   67  A    between atoms: _160  and  _163
REMARK   68  A    between atoms: _163  and  _164
REMARK   69  A    between atoms: _166  and  _168
REMARK   70  A    between atoms: _168  and  _169
REMARK   71  A    between atoms: _168  and  _171
REMARK   72  A    between atoms: _171  and  _172
REMARK   73  A    between atoms: _175  and  _177
REMARK   74  A    between atoms: _177  and  _178
REMARK   75  A    between atoms: _177  and  _180
REMARK   76  A    between atoms: _180  and  _181
REMARK   77  A    between atoms: _181  and  _182
REMARK   78  A    between atoms: _182  and  _183
REMARK   79  A    between atoms: _192  and  _194
REMARK   80  A    between atoms: _194  and  _195
REMARK   81  A    between atoms: _194  and  _197
REMARK   82  A    between atoms: _197  and  _198
REMARK   83  A    between atoms: _198  and  _199
REMARK   84  A    between atoms: _202  and  _204
REMARK   85  A    between atoms: _204  and  _205
REMARK   86  A    between atoms: _204  and  _207
REMARK   87  A    between atoms: _207  and  _208
REMARK   88  A    between atoms: _208  and  _209
REMARK   89  A    between atoms: _209  and  _210
REMARK   90  A    between atoms: _219  and  _221
REMARK   91  A    between atoms: _221  and  _222
REMARK   92  A    between atoms: _221  and  _224
REMARK   93  A    between atoms: _224  and  _225
REMARK   94  A    between atoms: _228  and  _230
REMARK   95  A    between atoms: _230  and  _231
REMARK   96  A    between atoms: _230  and  _233
REMARK   97  A    between atoms: _233  and  _234
REMARK   98  A    between atoms: _240  and  _242
REMARK   99  A    between atoms: _242  and  _243
REMARK  100  A    between atoms: _242  and  _245
REMARK  101  A    between atoms: _245  and  _246
REMARK  102  A    between atoms: _251  and  _252
REMARK  103  A    between atoms: _254  and  _256
REMARK  104  A    between atoms: _256  and  _257
REMARK  105  A    between atoms: _256  and  _259
REMARK  106  A    between atoms: _259  and  _260
REMARK  107  A    between atoms: _263  and  _265
REMARK  108  A    between atoms: _265  and  _266
REMARK  109  A    between atoms: _265  and  _268
REMARK  110  A    between atoms: _268  and  _269
REMARK  111  A    between atoms: _272  and  _274
REMARK  112  A    between atoms: _274  and  _275
REMARK  113  A    between atoms: _278  and  _280
REMARK  114  A    between atoms: _280  and  _281
REMARK  115  A    between atoms: _280  and  _283
REMARK  116  A    between atoms: _285  and  _287
REMARK  117  A    between atoms: _287  and  _288
REMARK  118  A    between atoms: _290  and  _292
REMARK  119  A    between atoms: _292  and  _293
REMARK  120  A    between atoms: _292  and  _295
REMARK  121  A    between atoms: _295  and  _296
REMARK  122  A    between atoms: _299  and  _301
REMARK  123  A    between atoms: _301  and  _302
REMARK  124  A    between atoms: _301  and  _304
REMARK  125  A    between atoms: _304  and  _305
REMARK  126  A    between atoms: _311  and  _312
REMARK  127  A    between atoms: _317  and  _319
REMARK  128  A    between atoms: _319  and  _320
REMARK  129  A    between atoms: _319  and  _322
REMARK  130  A    between atoms: _322  and  _323
REMARK  131  A    between atoms: _325  and  _327
REMARK  132  A    between atoms: _327  and  _328
REMARK  133  A    between atoms: _327  and  _330
REMARK  134  A    between atoms: _330  and  _331
REMARK  135  A    between atoms: _334  and  _336
REMARK  136  A    between atoms: _336  and  _337
REMARK  137  A    between atoms: _336  and  _339
REMARK  138  A    between atoms: _339  and  _340
REMARK  139  A    between atoms: _343  and  _345
REMARK  140  A    between atoms: _345  and  _346
REMARK  141  A    between atoms: _345  and  _348
REMARK  142  A    between atoms: _348  and  _349
REMARK  143  A    between atoms: _352  and  _354
REMARK  144  A    between atoms: _354  and  _355
REMARK  145  A    between atoms: _354  and  _357
REMARK  146  A    between atoms: _357  and  _358
REMARK  147  A    between atoms: _361  and  _363
REMARK  148  A    between atoms: _363  and  _364
REMARK  149  A    between atoms: _363  and  _366
REMARK  150  A    between atoms: _369  and  _371
REMARK  151  A    between atoms: _371  and  _372
REMARK  152  A    between atoms: _375  and  _377
REMARK  153  A    between atoms: _377  and  _378
REMARK  154  A    between atoms: _377  and  _380
REMARK  155  A    between atoms: _380  and  _381
REMARK  156  A    between atoms: _384  and  _386
REMARK  157  A    between atoms: _386  and  _387
REMARK  158  A    between atoms: _386  and  _389
REMARK  159  A    between atoms: _389  and  _390
REMARK  160  A    between atoms: _393  and  _395
REMARK  161  A    between atoms: _395  and  _396
REMARK  162  A    between atoms: _395  and  _398
REMARK  163  A    between atoms: _398  and  _399
REMARK  164  A    between atoms: _402  and  _404
REMARK  165  A    between atoms: _404  and  _405
REMARK  166  A    between atoms: _404  and  _407
REMARK  167  A    between atoms: _407  and  _408
REMARK  168  A    between atoms: _408  and  _409
REMARK  169  A    between atoms: _412  and  _414
REMARK  170  A    between atoms: _414  and  _415
REMARK  171  A    between atoms: _414  and  _417
REMARK  172  A    between atoms: _417  and  _418
REMARK  173  A    between atoms: _421  and  _423
REMARK  174  A    between atoms: _423  and  _424
REMARK  175  A    between atoms: _423  and  _426
REMARK  176  A    between atoms: _426  and  _427
REMARK  177  A    between atoms: _430  and  _432
REMARK  178  A    between atoms: _432  and  _433
REMARK  179  A    between atoms: _432  and  _435
REMARK  180  A    between atoms: _435  and  _436
REMARK  181  A    between atoms: _439  and  _441
REMARK  182  A    between atoms: _441  and  _442
REMARK  183  A    between atoms: _441  and  _444
REMARK  184  A    between atoms: _444  and  _445
REMARK  185  A    between atoms: _448  and  _450
REMARK  186  A    between atoms: _450  and  _451
REMARK  187  A    between atoms: _450  and  _453
REMARK  188  A    between atoms: _453  and  _454
REMARK  189  A    between atoms: _454  and  _455
REMARK  190  A    between atoms: _455  and  _456
REMARK  191  A    between atoms: _456  and  _457
REMARK  192  A    between atoms: _461  and  _463
REMARK  193  A    between atoms: _463  and  _464
REMARK  194  A    between atoms: _463  and  _466
REMARK  195  A    between atoms: _466  and  _467
REMARK  196  A    between atoms: _470  and  _472
REMARK  197  A    between atoms: _472  and  _473
REMARK  198  A    between atoms: _472  and  _475
REMARK  199  A    between atoms: _475  and  _476
REMARK  200  A    between atoms: _479  and  _481
REMARK  201  A    between atoms: _481  and  _482
REMARK  202  A    between atoms: _481  and  _484
REMARK  203  A    between atoms: _486  and  _488
REMARK  204  A    between atoms: _488  and  _489
REMARK  205  A    between atoms: _488  and  _491
REMARK  206  A    between atoms: _491  and  _492
REMARK  207  A    between atoms: _495  and  _497
REMARK  208  A    between atoms: _497  and  _498
REMARK  209  A    between atoms: _497  and  _500
REMARK  210  A    between atoms: _500  and  _501
REMARK  211  A    between atoms: _501  and  _502
REMARK  212  A    between atoms: _507  and  _509
REMARK  213  A    between atoms: _509  and  _510
REMARK  214  A    between atoms: _509  and  _512
REMARK  215  A    between atoms: _512  and  _513
REMARK  216  A    between atoms: _513  and  _514
REMARK  217  A    between atoms: _519  and  _521
REMARK  218  A    between atoms: _521  and  _522
REMARK  219  A    between atoms: _521  and  _524
REMARK  220  A    between atoms: _524  and  _525
REMARK  221  A    between atoms: _527  and  _529
REMARK  222  A    between atoms: _529  and  _530
REMARK  223  A    between atoms: _529  and  _532
REMARK  224  A    between atoms: _532  and  _533
REMARK  225  A    between atoms: _536  and  _538
REMARK  226  A    between atoms: _538  and  _539
REMARK  227  A    between atoms: _538  and  _541
REMARK  228  A    between atoms: _541  and  _542
REMARK  229  A    between atoms: _542  and  _543
REMARK                            x       y       z     vdW  Elec       q    Type
REMARK                         _______ _______ _______ _____ _____    ______ ____
ROOT
ATOM      1  O   HOH     1      13.983  -6.883  25.186  0.00  0.00    +0.000 OA
ENDROOT
TORSDOF 0
REMARK  Name = ../refined-set-2016/3lcu/3lcu_pocket.pdb
REMARK  229 active torsions:
REMARK  status: ('A' for Active; 'I' for Inactive)
REMARK    1  A    between atoms: _1  and  _3
REMARK    2  A    between atoms: _3  and  _4
REMARK    3  A    between atoms: _3  and  _6
REMARK    4  A    between atoms: _9  and  _11
REMARK    5  A    between atoms: _11  and  _12
REMARK    6  A    between atoms: _15  and  _17
REMARK    7  A    between atoms: _17  and  _18
REMARK    8  A    between atoms: _17  and  _20
REMARK    9  A    between atoms: _20  and  _21
REMARK   10  A    between atoms: _24  and  _26
REMARK   11  A    between atoms: _26  and  _27
REMARK   12  A    between atoms: _26  and  _29
REMARK   13  A    between atoms: _29  and  _30
REMARK   14  A    between atoms: _30  and  _31
REMARK   15  A    between atoms: _31  and  _32
REMARK   16  A    between atoms: _41  and  _43
REMARK   17  A    between atoms: _43  and  _44
REMARK   18  A    between atoms: _43  and  _46
REMARK   19  A    between atoms: _46  and  _47
REMARK   20  A    between atoms: _50  and  _52
REMARK   21  A    between atoms: _52  and  _53
REMARK   22  A    between atoms: _55  and  _57
REMARK   23  A    between atoms: _57  and  _58
REMARK   24  A    between atoms: _57  and  _60
REMARK   25  A    between atoms: _60  and  _61
REMARK   26  A    between atoms: _64  and  _66
REMARK   27  A    between atoms: _66  and  _67
REMARK   28  A    between atoms: _66  and  _69
REMARK   29  A    between atoms: _69  and  _70
REMARK   30  A    between atoms: _70  and  _71
REMARK   31  A    between atoms: _74  and  _76
REMARK   32  A    between atoms: _76  and  _77
REMARK   33  A    between atoms: _76  and  _79
REMARK   34  A    between atoms: _79  and  _80
REMARK   35  A    between atoms: _83  and  _85
REMARK   36  A    between atoms: _85  and  _86
REMARK   37  A    between atoms: _85  and  _88
REMARK   38  A    between atoms: _88  and  _89
REMARK   39  A    between atoms: _94  and  _95
REMARK   40  A    between atoms: _97  and  _99
REMARK   41  A    between atoms: _99  and  _100
REMARK   42  A    between atoms: _102  and  _104
REMARK   43  A    between atoms: _104  and  _105
REMARK   44  A    between atoms: _108  and  _110
REMARK   45  A    between atoms: _110  and  _111
REMARK   46  A    between atoms: _110  and  _113
REMARK   47  A    between atoms: _113  and  _114
REMARK   48  A    between atoms: _120  and  _122
REMARK   49  A    between atoms: _122  and  _123
REMARK   50  A    between atoms: _122  and  _125
REMARK   51  A    between atoms: _125  and  _126
REMARK   52  A    between atoms: _129  and  _131
REMARK   53  A    between atoms: _131  and  _132
REMARK   54  A    between atoms: _131  and  _134
REMARK   55  A    between atoms: _134  and  _135
REMARK   56  A    between atoms: _135  and  _136
REMARK   57  A    between atoms: _138  and  _140
REMARK   58  A    between atoms: _140  and  _141
REMARK   59  A    between atoms: _140  and  _143
REMARK   60  A    between atoms: _143  and  _144
REMARK   61  A    between atoms: _149  and  _151
REMARK   62  A    between atoms: _151  and  _152
REMARK   63  A    between atoms: _151  and  _154
REMARK   64  A    between atoms: _154  and  _155
REMARK   65  A    between atoms: _158  and  _160
REMARK   66  A    between atoms: _160  and  _161
REMARK   67  A    between atoms: _160  and  _163
REMARK   68  A    between atoms: _163  and  _164
REMARK   69  A    between atoms: _166  and  _168
REMARK   70  A    between atoms: _168  and  _169
REMARK   71  A    between atoms: _168  and  _171
REMARK   72  A    between atoms: _171  and  _172
REMARK   73  A    between atoms: _175  and  _177
REMARK   74  A    between atoms: _177  and  _178
REMARK   75  A    between atoms: _177  and  _180
REMARK   76  A    between atoms: _180  and  _181
REMARK   77  A    between atoms: _181  and  _182
REMARK   78  A    between atoms: _182  and  _183
REMARK   79  A    between atoms: _192  and  _194
REMARK   80  A    between atoms: _194  and  _195
REMARK   81  A    between atoms: _194  and  _197
REMARK   82  A    between atoms: _197  and  _198
REMARK   83  A    between atoms: _198  and  _199
REMARK   84  A    between atoms: _202  and  _204
REMARK   85  A    between atoms: _204  and  _205
REMARK   86  A    between atoms: _204  and  _207
REMARK   87  A    between atoms: _207  and  _208
REMARK   88  A    between atoms: _208  and  _209
REMARK   89  A    between atoms: _209  and  _210
REMARK   90  A    between atoms: _219  and  _221
REMARK   91  A    between atoms: _221  and  _222
REMARK   92  A    between atoms: _221  and  _224
REMARK   93  A    between atoms: _224  and  _225
REMARK   94  A    between atoms: _228  and  _230
REMARK   95  A    between atoms: _230  and  _231
REMARK   96  A    between atoms: _230  and  _233
REMARK   97  A    between atoms: _233  and  _234
REMARK   98  A    between atoms: _240  and  _242
REMARK   99  A    between atoms: _242  and  _243
REMARK  100  A    between atoms: _242  and  _245
REMARK  101  A    between atoms: _245  and  _246
REMARK  102  A    between atoms: _251  and  _252
REMARK  103  A    between atoms: _254  and  _256
REMARK  104  A    between atoms: _256  and  _257
REMARK  105  A    between atoms: _256  and  _259
REMARK  106  A    between atoms: _259  and  _260
REMARK  107  A    between atoms: _263  and  _265
REMARK  108  A    between atoms: _265  and  _266
REMARK  109  A    between atoms: _265  and  _268
REMARK  110  A    between atoms: _268  and  _269
REMARK  111  A    between atoms: _272  and  _274
REMARK  112  A    between atoms: _274  and  _275
REMARK  113  A    between atoms: _278  and  _280
REMARK  114  A    between atoms: _280  and  _281
REMARK  115  A    between atoms: _280  and  _283
REMARK  116  A    between atoms: _285  and  _287
REMARK  117  A    between atoms: _287  and  _288
REMARK  118  A    between atoms: _290  and  _292
REMARK  119  A    between atoms: _292  and  _293
REMARK  120  A    between atoms: _292  and  _295
REMARK  121  A    between atoms: _295  and  _296
REMARK  122  A    between atoms: _299  and  _301
REMARK  123  A    between atoms: _301  and  _302
REMARK  124  A    between atoms: _301  and  _304
REMARK  125  A    between atoms: _304  and  _305
REMARK  126  A    between atoms: _311  and  _312
REMARK  127  A    between atoms: _317  and  _319
REMARK  128  A    between atoms: _319  and  _320
REMARK  129  A    between atoms: _319  and  _322
REMARK  130  A    between atoms: _322  and  _323
REMARK  131  A    between atoms: _325  and  _327
REMARK  132  A    between atoms: _327  and  _328
REMARK  133  A    between atoms: _327  and  _330
REMARK  134  A    between atoms: _330  and  _331
REMARK  135  A    between atoms: _334  and  _336
REMARK  136  A    between atoms: _336  and  _337
REMARK  137  A    between atoms: _336  and  _339
REMARK  138  A    between atoms: _339  and  _340
REMARK  139  A    between atoms: _343  and  _345
REMARK  140  A    between atoms: _345  and  _346
REMARK  141  A    between atoms: _345  and  _348
REMARK  142  A    between atoms: _348  and  _349
REMARK  143  A    between atoms: _352  and  _354
REMARK  144  A    between atoms: _354  and  _355
REMARK  145  A    between atoms: _354  and  _357
REMARK  146  A    between atoms: _357  and  _358
REMARK  147  A    between atoms: _361  and  _363
REMARK  148  A    between atoms: _363  and  _364
REMARK  149  A    between atoms: _363  and  _366
REMARK  150  A    between atoms: _369  and  _371
REMARK  151  A    between atoms: _371  and  _372
REMARK  152  A    between atoms: _375  and  _377
REMARK  153  A    between atoms: _377  and  _378
REMARK  154  A    between atoms: _377  and  _380
REMARK  155  A    between atoms: _380  and  _381
REMARK  156  A    between atoms: _384  and  _386
REMARK  157  A    between atoms: _386  and  _387
REMARK  158  A    between atoms: _386  and  _389
REMARK  159  A    between atoms: _389  and  _390
REMARK  160  A    between atoms: _393  and  _395
REMARK  161  A    between atoms: _395  and  _396
REMARK  162  A    between atoms: _395  and  _398
REMARK  163  A    between atoms: _398  and  _399
REMARK  164  A    between atoms: _402  and  _404
REMARK  165  A    between atoms: _404  and  _405
REMARK  166  A    between atoms: _404  and  _407
REMARK  167  A    between atoms: _407  and  _408
REMARK  168  A    between atoms: _408  and  _409
REMARK  169  A    between atoms: _412  and  _414
REMARK  170  A    between atoms: _414  and  _415
REMARK  171  A    between atoms: _414  and  _417
REMARK  172  A    between atoms: _417  and  _418
REMARK  173  A    between atoms: _421  and  _423
REMARK  174  A    between atoms: _423  and  _424
REMARK  175  A    between atoms: _423  and  _426
REMARK  176  A    between atoms: _426  and  _427
REMARK  177  A    between atoms: _430  and  _432
REMARK  178  A    between atoms: _432  and  _433
REMARK  179  A    between atoms: _432  and  _435
REMARK  180  A    between atoms: _435  and  _436
REMARK  181  A    between atoms: _439  and  _441
REMARK  182  A    between atoms: _441  and  _442
REMARK  183  A    between atoms: _441  and  _444
REMARK  184  A    between atoms: _444  and  _445
REMARK  185  A    between atoms: _448  and  _450
REMARK  186  A    between atoms: _450  and  _451
REMARK  187  A    between atoms: _450  and  _453
REMARK  188  A    between atoms: _453  and  _454
REMARK  189  A    between atoms: _454  and  _455
REMARK  190  A    between atoms: _455  and  _456
REMARK  191  A    between atoms: _456  and  _457
REMARK  192  A    between atoms: _461  and  _463
REMARK  193  A    between atoms: _463  and  _464
REMARK  194  A    between atoms: _463  and  _466
REMARK  195  A    between atoms: _466  and  _467
REMARK  196  A    between atoms: _470  and  _472
REMARK  197  A    between atoms: _472  and  _473
REMARK  198  A    between atoms: _472  and  _475
REMARK  199  A    between atoms: _475  and  _476
REMARK  200  A    between atoms: _479  and  _481
REMARK  201  A    between atoms: _481  and  _482
REMARK  202  A    between atoms: _481  and  _484
REMARK  203  A    between atoms: _486  and  _488
REMARK  204  A    between atoms: _488  and  _489
REMARK  205  A    between atoms: _488  and  _491
REMARK  206  A    between atoms: _491  and  _492
REMARK  207  A    between atoms: _495  and  _497
REMARK  208  A    between atoms: _497  and  _498
REMARK  209  A    between atoms: _497  and  _500
REMARK  210  A    between atoms: _500  and  _501
REMARK  211  A    between atoms: _501  and  _502
REMARK  212  A    between atoms: _507  and  _509
REMARK  213  A    between atoms: _509  and  _510
REMARK  214  A    between atoms: _509  and  _512
REMARK  215  A    between atoms: _512  and  _513
REMARK  216  A    between atoms: _513  and  _514
REMARK  217  A    between atoms: _519  and  _521
REMARK  218  A    between atoms: _521  and  _522
REMARK  219  A    between atoms: _521  and  _524
REMARK  220  A    between atoms: _524  and  _525
REMARK  221  A    between atoms: _527  and  _529
REMARK  222  A    between atoms: _529  and  _530
REMARK  223  A    between atoms: _529  and  _532
REMARK  224  A    between atoms: _532  and  _533
REMARK  225  A    between atoms: _536  and  _538
REMARK  226  A    between atoms: _538  and  _539
REMARK  227  A    between atoms: _538  and  _541
REMARK  228  A    between atoms: _541  and  _542
REMARK  229  A    between atoms: _542  and  _543
REMARK                            x       y       z     vdW  Elec       q    Type
REMARK                         _______ _______ _______ _____ _____    ______ ____
ROOT
ATOM      1  O   HOH     1       8.144  -4.477  15.031  0.00  0.00    +0.000 OA
ENDROOT
TORSDOF 0
REMARK  Name = ../refined-set-2016/3lcu/3lcu_pocket.pdb
REMARK  229 active torsions:
REMARK  status: ('A' for Active; 'I' for Inactive)
REMARK    1  A    between atoms: _1  and  _3
REMARK    2  A    between atoms: _3  and  _4
REMARK    3  A    between atoms: _3  and  _6
REMARK    4  A    between atoms: _9  and  _11
REMARK    5  A    between atoms: _11  and  _12
REMARK    6  A    between atoms: _15  and  _17
REMARK    7  A    between atoms: _17  and  _18
REMARK    8  A    between atoms: _17  and  _20
REMARK    9  A    between atoms: _20  and  _21
REMARK   10  A    between atoms: _24  and  _26
REMARK   11  A    between atoms: _26  and  _27
REMARK   12  A    between atoms: _26  and  _29
REMARK   13  A    between atoms: _29  and  _30
REMARK   14  A    between atoms: _30  and  _31
REMARK   15  A    between atoms: _31  and  _32
REMARK   16  A    between atoms: _41  and  _43
REMARK   17  A    between atoms: _43  and  _44
REMARK   18  A    between atoms: _43  and  _46
REMARK   19  A    between atoms: _46  and  _47
REMARK   20  A    between atoms: _50  and  _52
REMARK   21  A    between atoms: _52  and  _53
REMARK   22  A    between atoms: _55  and  _57
REMARK   23  A    between atoms: _57  and  _58
REMARK   24  A    between atoms: _57  and  _60
REMARK   25  A    between atoms: _60  and  _61
REMARK   26  A    between atoms: _64  and  _66
REMARK   27  A    between atoms: _66  and  _67
REMARK   28  A    between atoms: _66  and  _69
REMARK   29  A    between atoms: _69  and  _70
REMARK   30  A    between atoms: _70  and  _71
REMARK   31  A    between atoms: _74  and  _76
REMARK   32  A    between atoms: _76  and  _77
REMARK   33  A    between atoms: _76  and  _79
REMARK   34  A    between atoms: _79  and  _80
REMARK   35  A    between atoms: _83  and  _85
REMARK   36  A    between atoms: _85  and  _86
REMARK   37  A    between atoms: _85  and  _88
REMARK   38  A    between atoms: _88  and  _89
REMARK   39  A    between atoms: _94  and  _95
REMARK   40  A    between atoms: _97  and  _99
REMARK   41  A    between atoms: _99  and  _100
REMARK   42  A    between atoms: _102  and  _104
REMARK   43  A    between atoms: _104  and  _105
REMARK   44  A    between atoms: _108  and  _110
REMARK   45  A    between atoms: _110  and  _111
REMARK   46  A    between atoms: _110  and  _113
REMARK   47  A    between atoms: _113  and  _114
REMARK   48  A    between atoms: _120  and  _122
REMARK   49  A    between atoms: _122  and  _123
REMARK   50  A    between atoms: _122  and  _125
REMARK   51  A    between atoms: _125  and  _126
REMARK   52  A    between atoms: _129  and  _131
REMARK   53  A    between atoms: _131  and  _132
REMARK   54  A    between atoms: _131  and  _134
REMARK   55  A    between atoms: _134  and  _135
REMARK   56  A    between atoms: _135  and  _136
REMARK   57  A    between atoms: _138  and  _140
REMARK   58  A    between atoms: _140  and  _141
REMARK   59  A    between atoms: _140  and  _143
REMARK   60  A    between atoms: _143  and  _144
REMARK   61  A    between atoms: _149  and  _151
REMARK   62  A    between atoms: _151  and  _152
REMARK   63  A    between atoms: _151  and  _154
REMARK   64  A    between atoms: _154  and  _155
REMARK   65  A    between atoms: _158  and  _160
REMARK   66  A    between atoms: _160  and  _161
REMARK   67  A    between atoms: _160  and  _163
REMARK   68  A    between atoms: _163  and  _164
REMARK   69  A    between atoms: _166  and  _168
REMARK   70  A    between atoms: _168  and  _169
REMARK   71  A    between atoms: _168  and  _171
REMARK   72  A    between atoms: _171  and  _172
REMARK   73  A    between atoms: _175  and  _177
REMARK   74  A    between atoms: _177  and  _178
REMARK   75  A    between atoms: _177  and  _180
REMARK   76  A    between atoms: _180  and  _181
REMARK   77  A    between atoms: _181  and  _182
REMARK   78  A    between atoms: _182  and  _183
REMARK   79  A    between atoms: _192  and  _194
REMARK   80  A    between atoms: _194  and  _195
REMARK   81  A    between atoms: _194  and  _197
REMARK   82  A    between atoms: _197  and  _198
REMARK   83  A    between atoms: _198  and  _199
REMARK   84  A    between atoms: _202  and  _204
REMARK   85  A    between atoms: _204  and  _205
REMARK   86  A    between atoms: _204  and  _207
REMARK   87  A    between atoms: _207  and  _208
REMARK   88  A    between atoms: _208  and  _209
REMARK   89  A    between atoms: _209  and  _210
REMARK   90  A    between atoms: _219  and  _221
REMARK   91  A    between atoms: _221  and  _222
REMARK   92  A    between atoms: _221  and  _224
REMARK   93  A    between atoms: _224  and  _225
REMARK   94  A    between atoms: _228  and  _230
REMARK   95  A    between atoms: _230  and  _231
REMARK   96  A    between atoms: _230  and  _233
REMARK   97  A    between atoms: _233  and  _234
REMARK   98  A    between atoms: _240  and  _242
REMARK   99  A    between atoms: _242  and  _243
REMARK  100  A    between atoms: _242  and  _245
REMARK  101  A    between atoms: _245  and  _246
REMARK  102  A    between atoms: _251  and  _252
REMARK  103  A    between atoms: _254  and  _256
REMARK  104  A    between atoms: _256  and  _257
REMARK  105  A    between atoms: _256  and  _259
REMARK  106  A    between atoms: _259  and  _260
REMARK  107  A    between atoms: _263  and  _265
REMARK  108  A    between atoms: _265  and  _266
REMARK  109  A    between atoms: _265  and  _268
REMARK  110  A    between atoms: _268  and  _269
REMARK  111  A    between atoms: _272  and  _274
REMARK  112  A    between atoms: _274  and  _275
REMARK  113  A    between atoms: _278  and  _280
REMARK  114  A    between atoms: _280  and  _281
REMARK  115  A    between atoms: _280  and  _283
REMARK  116  A    between atoms: _285  and  _287
REMARK  117  A    between atoms: _287  and  _288
REMARK  118  A    between atoms: _290  and  _292
REMARK  119  A    between atoms: _292  and  _293
REMARK  120  A    between atoms: _292  and  _295
REMARK  121  A    between atoms: _295  and  _296
REMARK  122  A    between atoms: _299  and  _301
REMARK  123  A    between atoms: _301  and  _302
REMARK  124  A    between atoms: _301  and  _304
REMARK  125  A    between atoms: _304  and  _305
REMARK  126  A    between atoms: _311  and  _312
REMARK  127  A    between atoms: _317  and  _319
REMARK  128  A    between atoms: _319  and  _320
REMARK  129  A    between atoms: _319  and  _322
REMARK  130  A    between atoms: _322  and  _323
REMARK  131  A    between atoms: _325  and  _327
REMARK  132  A    between atoms: _327  and  _328
REMARK  133  A    between atoms: _327  and  _330
REMARK  134  A    between atoms: _330  and  _331
REMARK  135  A    between atoms: _334  and  _336
REMARK  136  A    between atoms: _336  and  _337
REMARK  137  A    between atoms: _336  and  _339
REMARK  138  A    between atoms: _339  and  _340
REMARK  139  A    between atoms: _343  and  _345
REMARK  140  A    between atoms: _345  and  _346
REMARK  141  A    between atoms: _345  and  _348
REMARK  142  A    between atoms: _348  and  _349
REMARK  143  A    between atoms: _352  and  _354
REMARK  144  A    between atoms: _354  and  _355
REMARK  145  A    between atoms: _354  and  _357
REMARK  146  A    between atoms: _357  and  _358
REMARK  147  A    between atoms: _361  and  _363
REMARK  148  A    between atoms: _363  and  _364
REMARK  149  A    between atoms: _363  and  _366
REMARK  150  A    between atoms: _369  and  _371
REMARK  151  A    between atoms: _371  and  _372
REMARK  152  A    between atoms: _375  and  _377
REMARK  153  A    between atoms: _377  and  _378
REMARK  154  A    between atoms: _377  and  _380
REMARK  155  A    between atoms: _380  and  _381
REMARK  156  A    between atoms: _384  and  _386
REMARK  157  A    between atoms: _386  and  _387
REMARK  158  A    between atoms: _386  and  _389
REMARK  159  A    between atoms: _389  and  _390
REMARK  160  A    between atoms: _393  and  _395
REMARK  161  A    between atoms: _395  and  _396
REMARK  162  A    between atoms: _395  and  _398
REMARK  163  A    between atoms: _398  and  _399
REMARK  164  A    between atoms: _402  and  _404
REMARK  165  A    between atoms: _404  and  _405
REMARK  166  A    between atoms: _404  and  _407
REMARK  167  A    between atoms: _407  and  _408
REMARK  168  A    between atoms: _408  and  _409
REMARK  169  A    between atoms: _412  and  _414
REMARK  170  A    between atoms: _414  and  _415
REMARK  171  A    between atoms: _414  and  _417
REMARK  172  A    between atoms: _417  and  _418
REMARK  173  A    between atoms: _421  and  _423
REMARK  174  A    between atoms: _423  and  _424
REMARK  175  A    between atoms: _423  and  _426
REMARK  176  A    between atoms: _426  and  _427
REMARK  177  A    between atoms: _430  and  _432
REMARK  178  A    between atoms: _432  and  _433
REMARK  179  A    between atoms: _432  and  _435
REMARK  180  A    between atoms: _435  and  _436
REMARK  181  A    between atoms: _439  and  _441
REMARK  182  A    between atoms: _441  and  _442
REMARK  183  A    between atoms: _441  and  _444
REMARK  184  A    between atoms: _444  and  _445
REMARK  185  A    between atoms: _448  and  _450
REMARK  186  A    between atoms: _450  and  _451
REMARK  187  A    between atoms: _450  and  _453
REMARK  188  A    between atoms: _453  and  _454
REMARK  189  A    between atoms: _454  and  _455
REMARK  190  A    between atoms: _455  and  _456
REMARK  191  A    between atoms: _456  and  _457
REMARK  192  A    between atoms: _461  and  _463
REMARK  193  A    between atoms: _463  and  _464
REMARK  194  A    between atoms: _463  and  _466
REMARK  195  A    between atoms: _466  and  _467
REMARK  196  A    between atoms: _470  and  _472
REMARK  197  A    between atoms: _472  and  _473
REMARK  198  A    between atoms: _472  and  _475
REMARK  199  A    between atoms: _475  and  _476
REMARK  200  A    between atoms: _479  and  _481
REMARK  201  A    between atoms: _481  and  _482
REMARK  202  A    between atoms: _481  and  _484
REMARK  203  A    between atoms: _486  and  _488
REMARK  204  A    between atoms: _488  and  _489
REMARK  205  A    between atoms: _488  and  _491
REMARK  206  A    between atoms: _491  and  _492
REMARK  207  A    between atoms: _495  and  _497
REMARK  208  A    between atoms: _497  and  _498
REMARK  209  A    between atoms: _497  and  _500
REMARK  210  A    between atoms: _500  and  _501
REMARK  211  A    between atoms: _501  and  _502
REMARK  212  A    between atoms: _507  and  _509
REMARK  213  A    between atoms: _509  and  _510
REMARK  214  A    between atoms: _509  and  _512
REMARK  215  A    between atoms: _512  and  _513
REMARK  216  A    between atoms: _513  and  _514
REMARK  217  A    between atoms: _519  and  _521
REMARK  218  A    between atoms: _521  and  _522
REMARK  219  A    between atoms: _521  and  _524
REMARK  220  A    between atoms: _524  and  _525
REMARK  221  A    between atoms: _527  and  _529
REMARK  222  A    between atoms: _529  and  _530
REMARK  223  A    between atoms: _529  and  _532
REMARK  224  A    between atoms: _532  and  _533
REMARK  225  A    between atoms: _536  and  _538
REMARK  226  A    between atoms: _538  and  _539
REMARK  227  A    between atoms: _538  and  _541
REMARK  228  A    between atoms: _541  and  _542
REMARK  229  A    between atoms: _542  and  _543
REMARK                            x       y       z     vdW  Elec       q    Type
REMARK                         _______ _______ _______ _____ _____    ______ ____
ROOT
ATOM      1  O   HOH     1       5.580  -0.749  25.576  0.00  0.00    +0.000 OA
ENDROOT
TORSDOF 0
