REMARK  Name = ../refined-set-2016/4ovh/4ovh_pocket.pdb
REMARK  113 active torsions:
REMARK  status: ('A' for Active; 'I' for Inactive)
REMARK    1  A    between atoms: _1  and  _3
REMARK    2  A    between atoms: _3  and  _4
REMARK    3  A    between atoms: _3  and  _6
REMARK    4  A    between atoms: _6  and  _7
REMARK    5  A    between atoms: _9  and  _11
REMARK    6  A    between atoms: _11  and  _12
REMARK    7  A    between atoms: _11  and  _14
REMARK    8  A    between atoms: _14  and  _15
REMARK    9  A    between atoms: _18  and  _20
REMARK   10  A    between atoms: _20  and  _21
REMARK   11  A    between atoms: _20  and  _23
REMARK   12  A    between atoms: _23  and  _24
REMARK   13  A    between atoms: _24  and  _25
REMARK   14  A    between atoms: _25  and  _26
REMARK   15  A    between atoms: _35  and  _37
REMARK   16  A    between atoms: _37  and  _38
REMARK   17  A    between atoms: _37  and  _40
REMARK   18  A    between atoms: _40  and  _41
REMARK   19  A    between atoms: _46  and  _47
REMARK   20  A    between atoms: _49  and  _51
REMARK   21  A    between atoms: _51  and  _52
REMARK   22  A    between atoms: _51  and  _54
REMARK   23  A    between atoms: _54  and  _55
REMARK   24  A    between atoms: _58  and  _60
REMARK   25  A    between atoms: _60  and  _61
REMARK   26  A    between atoms: _64  and  _66
REMARK   27  A    between atoms: _66  and  _67
REMARK   28  A    between atoms: _66  and  _69
REMARK   29  A    between atoms: _69  and  _70
REMARK   30  A    between atoms: _73  and  _75
REMARK   31  A    between atoms: _75  and  _76
REMARK   32  A    between atoms: _75  and  _78
REMARK   33  A    between atoms: _78  and  _79
REMARK   34  A    between atoms: _82  and  _84
REMARK   35  A    between atoms: _84  and  _85
REMARK   36  A    between atoms: _87  and  _89
REMARK   37  A    between atoms: _89  and  _90
REMARK   38  A    between atoms: _89  and  _92
REMARK   39  A    between atoms: _92  and  _93
REMARK   40  A    between atoms: _98  and  _100
REMARK   41  A    between atoms: _100  and  _101
REMARK   42  A    between atoms: _100  and  _103
REMARK   43  A    between atoms: _103  and  _104
REMARK   44  A    between atoms: _104  and  _105
REMARK   45  A    between atoms: _105  and  _106
REMARK   46  A    between atoms: _115  and  _117
REMARK   47  A    between atoms: _117  and  _118
REMARK   48  A    between atoms: _117  and  _120
REMARK   49  A    between atoms: _120  and  _121
REMARK   50  A    between atoms: _124  and  _126
REMARK   51  A    between atoms: _126  and  _127
REMARK   52  A    between atoms: _130  and  _132
REMARK   53  A    between atoms: _132  and  _133
REMARK   54  A    between atoms: _132  and  _135
REMARK   55  A    between atoms: _135  and  _136
REMARK   56  A    between atoms: _136  and  _137
REMARK   57  A    between atoms: _137  and  _138
REMARK   58  A    between atoms: _147  and  _149
REMARK   59  A    between atoms: _149  and  _150
REMARK   60  A    between atoms: _149  and  _152
REMARK   61  A    between atoms: _152  and  _153
REMARK   62  A    between atoms: _160  and  _161
REMARK   63  A    between atoms: _166  and  _168
REMARK   64  A    between atoms: _168  and  _169
REMARK   65  A    between atoms: _168  and  _171
REMARK   66  A    between atoms: _171  and  _172
REMARK   67  A    between atoms: _175  and  _177
REMARK   68  A    between atoms: _177  and  _178
REMARK   69  A    between atoms: _177  and  _180
REMARK   70  A    between atoms: _180  and  _181
REMARK   71  A    between atoms: _186  and  _187
REMARK   72  A    between atoms: _189  and  _191
REMARK   73  A    between atoms: _191  and  _192
REMARK   74  A    between atoms: _191  and  _194
REMARK   75  A    between atoms: _194  and  _195
REMARK   76  A    between atoms: _195  and  _196
REMARK   77  A    between atoms: _196  and  _197
REMARK   78  A    between atoms: _206  and  _208
REMARK   79  A    between atoms: _208  and  _209
REMARK   80  A    between atoms: _208  and  _211
REMARK   81  A    between atoms: _214  and  _216
REMARK   82  A    between atoms: _216  and  _217
REMARK   83  A    between atoms: _216  and  _219
REMARK   84  A    between atoms: _219  and  _220
REMARK   85  A    between atoms: _223  and  _225
REMARK   86  A    between atoms: _225  and  _226
REMARK   87  A    between atoms: _225  and  _228
REMARK   88  A    between atoms: _228  and  _229
REMARK   89  A    between atoms: _234  and  _235
REMARK   90  A    between atoms: _237  and  _239
REMARK   91  A    between atoms: _239  and  _240
REMARK   92  A    between atoms: _239  and  _242
REMARK   93  A    between atoms: _242  and  _243
REMARK   94  A    between atoms: _245  and  _247
REMARK   95  A    between atoms: _247  and  _248
REMARK   96  A    between atoms: _247  and  _250
REMARK   97  A    between atoms: _253  and  _255
REMARK   98  A    between atoms: _255  and  _256
REMARK   99  A    between atoms: _255  and  _258
REMARK  100  A    between atoms: _258  and  _259
REMARK  101  A    between atoms: _264  and  _265
REMARK  102  A    between atoms: _267  and  _269
REMARK  103  A    between atoms: _269  and  _270
REMARK  104  A    between atoms: _269  and  _272
REMARK  105  A    between atoms: _275  and  _277
REMARK  106  A    between atoms: _277  and  _278
REMARK  107  A    between atoms: _277  and  _280
REMARK  108  A    between atoms: _283  and  _285
REMARK  109  A    between atoms: _285  and  _286
REMARK  110  A    between atoms: _285  and  _288
REMARK  111  A    between atoms: _288  and  _289
REMARK  112  A    between atoms: _289  and  _290
REMARK  113  A    between atoms: _293  and  _294
REMARK                            x       y       z     vdW  Elec       q    Type
REMARK                         _______ _______ _______ _____ _____    ______ ____
ROOT
ATOM      1  CA  SER A   1     -32.727  -0.494  -0.744  0.00  0.00    +0.163 C 
ENDROOT
BRANCH   1   2
ATOM      2  N   SER A   1     -32.801   0.298   0.494  0.00  0.00    -0.237 NA
ATOM      3  H   SER A   1     -32.143   1.091   0.631  0.00  0.00    +0.142 HD
ENDBRANCH   1   2
BRANCH   1   4
ATOM      4  CB  SER A   1     -31.780  -1.695  -0.682  0.00  0.00    +0.227 C 
ATOM      5  OG  SER A   1     -31.718  -2.470  -1.645  0.00  0.00    -0.287 OA
ENDBRANCH   1   4
BRANCH   1   6
ATOM      6  C   SER A   1     -32.349   0.390  -1.936  0.00  0.00    +0.162 C 
BRANCH   6   7
ATOM      7  O   SER A   1     -33.431   1.228  -2.279  0.00  0.00    -0.380 OA
ATOM      8  H   SER A   1     -33.177   1.795  -3.050  0.00  0.00    +0.211 HD
ENDBRANCH   6   7
ENDBRANCH   1   6
TORSDOF 4
REMARK  Name = ../refined-set-2016/4ovh/4ovh_pocket.pdb
REMARK  113 active torsions:
REMARK  status: ('A' for Active; 'I' for Inactive)
REMARK    1  A    between atoms: _1  and  _3
REMARK    2  A    between atoms: _3  and  _4
REMARK    3  A    between atoms: _3  and  _6
REMARK    4  A    between atoms: _6  and  _7
REMARK    5  A    between atoms: _9  and  _11
REMARK    6  A    between atoms: _11  and  _12
REMARK    7  A    between atoms: _11  and  _14
REMARK    8  A    between atoms: _14  and  _15
REMARK    9  A    between atoms: _18  and  _20
REMARK   10  A    between atoms: _20  and  _21
REMARK   11  A    between atoms: _20  and  _23
REMARK   12  A    between atoms: _23  and  _24
REMARK   13  A    between atoms: _24  and  _25
REMARK   14  A    between atoms: _25  and  _26
REMARK   15  A    between atoms: _35  and  _37
REMARK   16  A    between atoms: _37  and  _38
REMARK   17  A    between atoms: _37  and  _40
REMARK   18  A    between atoms: _40  and  _41
REMARK   19  A    between atoms: _46  and  _47
REMARK   20  A    between atoms: _49  and  _51
REMARK   21  A    between atoms: _51  and  _52
REMARK   22  A    between atoms: _51  and  _54
REMARK   23  A    between atoms: _54  and  _55
REMARK   24  A    between atoms: _58  and  _60
REMARK   25  A    between atoms: _60  and  _61
REMARK   26  A    between atoms: _64  and  _66
REMARK   27  A    between atoms: _66  and  _67
REMARK   28  A    between atoms: _66  and  _69
REMARK   29  A    between atoms: _69  and  _70
REMARK   30  A    between atoms: _73  and  _75
REMARK   31  A    between atoms: _75  and  _76
REMARK   32  A    between atoms: _75  and  _78
REMARK   33  A    between atoms: _78  and  _79
REMARK   34  A    between atoms: _82  and  _84
REMARK   35  A    between atoms: _84  and  _85
REMARK   36  A    between atoms: _87  and  _89
REMARK   37  A    between atoms: _89  and  _90
REMARK   38  A    between atoms: _89  and  _92
REMARK   39  A    between atoms: _92  and  _93
REMARK   40  A    between atoms: _98  and  _100
REMARK   41  A    between atoms: _100  and  _101
REMARK   42  A    between atoms: _100  and  _103
REMARK   43  A    between atoms: _103  and  _104
REMARK   44  A    between atoms: _104  and  _105
REMARK   45  A    between atoms: _105  and  _106
REMARK   46  A    between atoms: _115  and  _117
REMARK   47  A    between atoms: _117  and  _118
REMARK   48  A    between atoms: _117  and  _120
REMARK   49  A    between atoms: _120  and  _121
REMARK   50  A    between atoms: _124  and  _126
REMARK   51  A    between atoms: _126  and  _127
REMARK   52  A    between atoms: _130  and  _132
REMARK   53  A    between atoms: _132  and  _133
REMARK   54  A    between atoms: _132  and  _135
REMARK   55  A    between atoms: _135  and  _136
REMARK   56  A    between atoms: _136  and  _137
REMARK   57  A    between atoms: _137  and  _138
REMARK   58  A    between atoms: _147  and  _149
REMARK   59  A    between atoms: _149  and  _150
REMARK   60  A    between atoms: _149  and  _152
REMARK   61  A    between atoms: _152  and  _153
REMARK   62  A    between atoms: _160  and  _161
REMARK   63  A    between atoms: _166  and  _168
REMARK   64  A    between atoms: _168  and  _169
REMARK   65  A    between atoms: _168  and  _171
REMARK   66  A    between atoms: _171  and  _172
REMARK   67  A    between atoms: _175  and  _177
REMARK   68  A    between atoms: _177  and  _178
REMARK   69  A    between atoms: _177  and  _180
REMARK   70  A    between atoms: _180  and  _181
REMARK   71  A    between atoms: _186  and  _187
REMARK   72  A    between atoms: _189  and  _191
REMARK   73  A    between atoms: _191  and  _192
REMARK   74  A    between atoms: _191  and  _194
REMARK   75  A    between atoms: _194  and  _195
REMARK   76  A    between atoms: _195  and  _196
REMARK   77  A    between atoms: _196  and  _197
REMARK   78  A    between atoms: _206  and  _208
REMARK   79  A    between atoms: _208  and  _209
REMARK   80  A    between atoms: _208  and  _211
REMARK   81  A    between atoms: _214  and  _216
REMARK   82  A    between atoms: _216  and  _217
REMARK   83  A    between atoms: _216  and  _219
REMARK   84  A    between atoms: _219  and  _220
REMARK   85  A    between atoms: _223  and  _225
REMARK   86  A    between atoms: _225  and  _226
REMARK   87  A    between atoms: _225  and  _228
REMARK   88  A    between atoms: _228  and  _229
REMARK   89  A    between atoms: _234  and  _235
REMARK   90  A    between atoms: _237  and  _239
REMARK   91  A    between atoms: _239  and  _240
REMARK   92  A    between atoms: _239  and  _242
REMARK   93  A    between atoms: _242  and  _243
REMARK   94  A    between atoms: _245  and  _247
REMARK   95  A    between atoms: _247  and  _248
REMARK   96  A    between atoms: _247  and  _250
REMARK   97  A    between atoms: _253  and  _255
REMARK   98  A    between atoms: _255  and  _256
REMARK   99  A    between atoms: _255  and  _258
REMARK  100  A    between atoms: _258  and  _259
REMARK  101  A    between atoms: _264  and  _265
REMARK  102  A    between atoms: _267  and  _269
REMARK  103  A    between atoms: _269  and  _270
REMARK  104  A    between atoms: _269  and  _272
REMARK  105  A    between atoms: _275  and  _277
REMARK  106  A    between atoms: _277  and  _278
REMARK  107  A    between atoms: _277  and  _280
REMARK  108  A    between atoms: _283  and  _285
REMARK  109  A    between atoms: _285  and  _286
REMARK  110  A    between atoms: _285  and  _288
REMARK  111  A    between atoms: _288  and  _289
REMARK  112  A    between atoms: _289  and  _290
REMARK  113  A    between atoms: _293  and  _294
REMARK                            x       y       z     vdW  Elec       q    Type
REMARK                         _______ _______ _______ _____ _____    ______ ____
ROOT
ATOM      1  CA  ASP A   1     -30.595 -12.561  -0.535  0.00  0.00    +0.144 C 
ENDROOT
BRANCH   1   2
ATOM      2  N   ASP A   1     -30.663 -12.061   0.845  0.00  0.00    -0.239 NA
ATOM      3  H   ASP A   1     -30.446 -11.061   1.032  0.00  0.00    +0.142 HD
ENDBRANCH   1   2
BRANCH   1   4
ATOM      4  C   ASP A   1     -29.431 -13.546  -0.699  0.00  0.00    +0.225 C 
ATOM      5  O   ASP A   1     -28.402 -13.414  -0.019  0.00  0.00    -0.287 OA
ENDBRANCH   1   4
BRANCH   1   6
ATOM      6  CB  ASP A   1     -30.445 -11.387  -1.512  0.00  0.00    +0.139 C 
BRANCH   6   7
ATOM      7  CG  ASP A   1     -30.812 -11.754  -2.939  0.00  0.00    +0.367 C 
ATOM      8  OD2 ASP A   1     -31.889 -11.328  -3.396  0.00  0.00    -0.246 OA
ATOM      9  OD1 ASP A   1     -30.025 -12.455  -3.609  0.00  0.00    -0.246 OA
ENDBRANCH   6   7
ENDBRANCH   1   6
TORSDOF 4
REMARK  Name = ../refined-set-2016/4ovh/4ovh_pocket.pdb
REMARK  113 active torsions:
REMARK  status: ('A' for Active; 'I' for Inactive)
REMARK    1  A    between atoms: _1  and  _3
REMARK    2  A    between atoms: _3  and  _4
REMARK    3  A    between atoms: _3  and  _6
REMARK    4  A    between atoms: _6  and  _7
REMARK    5  A    between atoms: _9  and  _11
REMARK    6  A    between atoms: _11  and  _12
REMARK    7  A    between atoms: _11  and  _14
REMARK    8  A    between atoms: _14  and  _15
REMARK    9  A    between atoms: _18  and  _20
REMARK   10  A    between atoms: _20  and  _21
REMARK   11  A    between atoms: _20  and  _23
REMARK   12  A    between atoms: _23  and  _24
REMARK   13  A    between atoms: _24  and  _25
REMARK   14  A    between atoms: _25  and  _26
REMARK   15  A    between atoms: _35  and  _37
REMARK   16  A    between atoms: _37  and  _38
REMARK   17  A    between atoms: _37  and  _40
REMARK   18  A    between atoms: _40  and  _41
REMARK   19  A    between atoms: _46  and  _47
REMARK   20  A    between atoms: _49  and  _51
REMARK   21  A    between atoms: _51  and  _52
REMARK   22  A    between atoms: _51  and  _54
REMARK   23  A    between atoms: _54  and  _55
REMARK   24  A    between atoms: _58  and  _60
REMARK   25  A    between atoms: _60  and  _61
REMARK   26  A    between atoms: _64  and  _66
REMARK   27  A    between atoms: _66  and  _67
REMARK   28  A    between atoms: _66  and  _69
REMARK   29  A    between atoms: _69  and  _70
REMARK   30  A    between atoms: _73  and  _75
REMARK   31  A    between atoms: _75  and  _76
REMARK   32  A    between atoms: _75  and  _78
REMARK   33  A    between atoms: _78  and  _79
REMARK   34  A    between atoms: _82  and  _84
REMARK   35  A    between atoms: _84  and  _85
REMARK   36  A    between atoms: _87  and  _89
REMARK   37  A    between atoms: _89  and  _90
REMARK   38  A    between atoms: _89  and  _92
REMARK   39  A    between atoms: _92  and  _93
REMARK   40  A    between atoms: _98  and  _100
REMARK   41  A    between atoms: _100  and  _101
REMARK   42  A    between atoms: _100  and  _103
REMARK   43  A    between atoms: _103  and  _104
REMARK   44  A    between atoms: _104  and  _105
REMARK   45  A    between atoms: _105  and  _106
REMARK   46  A    between atoms: _115  and  _117
REMARK   47  A    between atoms: _117  and  _118
REMARK   48  A    between atoms: _117  and  _120
REMARK   49  A    between atoms: _120  and  _121
REMARK   50  A    between atoms: _124  and  _126
REMARK   51  A    between atoms: _126  and  _127
REMARK   52  A    between atoms: _130  and  _132
REMARK   53  A    between atoms: _132  and  _133
REMARK   54  A    between atoms: _132  and  _135
REMARK   55  A    between atoms: _135  and  _136
REMARK   56  A    between atoms: _136  and  _137
REMARK   57  A    between atoms: _137  and  _138
REMARK   58  A    between atoms: _147  and  _149
REMARK   59  A    between atoms: _149  and  _150
REMARK   60  A    between atoms: _149  and  _152
REMARK   61  A    between atoms: _152  and  _153
REMARK   62  A    between atoms: _160  and  _161
REMARK   63  A    between atoms: _166  and  _168
REMARK   64  A    between atoms: _168  and  _169
REMARK   65  A    between atoms: _168  and  _171
REMARK   66  A    between atoms: _171  and  _172
REMARK   67  A    between atoms: _175  and  _177
REMARK   68  A    between atoms: _177  and  _178
REMARK   69  A    between atoms: _177  and  _180
REMARK   70  A    between atoms: _180  and  _181
REMARK   71  A    between atoms: _186  and  _187
REMARK   72  A    between atoms: _189  and  _191
REMARK   73  A    between atoms: _191  and  _192
REMARK   74  A    between atoms: _191  and  _194
REMARK   75  A    between atoms: _194  and  _195
REMARK   76  A    between atoms: _195  and  _196
REMARK   77  A    between atoms: _196  and  _197
REMARK   78  A    between atoms: _206  and  _208
REMARK   79  A    between atoms: _208  and  _209
REMARK   80  A    between atoms: _208  and  _211
REMARK   81  A    between atoms: _214  and  _216
REMARK   82  A    between atoms: _216  and  _217
REMARK   83  A    between atoms: _216  and  _219
REMARK   84  A    between atoms: _219  and  _220
REMARK   85  A    between atoms: _223  and  _225
REMARK   86  A    between atoms: _225  and  _226
REMARK   87  A    between atoms: _225  and  _228
REMARK   88  A    between atoms: _228  and  _229
REMARK   89  A    between atoms: _234  and  _235
REMARK   90  A    between atoms: _237  and  _239
REMARK   91  A    between atoms: _239  and  _240
REMARK   92  A    between atoms: _239  and  _242
REMARK   93  A    between atoms: _242  and  _243
REMARK   94  A    between atoms: _245  and  _247
REMARK   95  A    between atoms: _247  and  _248
REMARK   96  A    between atoms: _247  and  _250
REMARK   97  A    between atoms: _253  and  _255
REMARK   98  A    between atoms: _255  and  _256
REMARK   99  A    between atoms: _255  and  _258
REMARK  100  A    between atoms: _258  and  _259
REMARK  101  A    between atoms: _264  and  _265
REMARK  102  A    between atoms: _267  and  _269
REMARK  103  A    between atoms: _269  and  _270
REMARK  104  A    between atoms: _269  and  _272
REMARK  105  A    between atoms: _275  and  _277
REMARK  106  A    between atoms: _277  and  _278
REMARK  107  A    between atoms: _277  and  _280
REMARK  108  A    between atoms: _283  and  _285
REMARK  109  A    between atoms: _285  and  _286
REMARK  110  A    between atoms: _285  and  _288
REMARK  111  A    between atoms: _288  and  _289
REMARK  112  A    between atoms: _289  and  _290
REMARK  113  A    between atoms: _293  and  _294
REMARK                            x       y       z     vdW  Elec       q    Type
REMARK                         _______ _______ _______ _____ _____    ______ ____
ROOT
ATOM      1  NE  ARG A   1     -29.041 -11.430  -7.101  0.00  0.00    -0.265 N 
ATOM      2  CZ  ARG A   1     -30.236 -10.856  -7.146  0.00  0.00    +0.342 C 
ATOM      3  NH2 ARG A   1     -31.232 -11.253  -6.356  0.00  0.00    -0.292 N 
ATOM      4 HH21 ARG A   1     -31.083 -12.031  -5.682  0.00  0.00    +0.255 HD
ATOM      5 HH22 ARG A   1     -32.159 -10.785  -6.413  0.00  0.00    +0.255 HD
ATOM      6  NH1 ARG A   1     -30.427  -9.851  -7.986  0.00  0.00    -0.292 N 
ATOM      7 HH11 ARG A   1     -31.356  -9.386  -8.038  0.00  0.00    +0.255 HD
ATOM      8 HH12 ARG A   1     -29.648  -9.526  -8.594  0.00  0.00    +0.255 HD
ATOM      9  HE  ARG A   1     -28.302 -11.042  -7.722  0.00  0.00    +0.259 HD
ENDROOT
BRANCH   1  10
ATOM     10  CD  ARG A   1     -28.677 -12.556  -6.257  0.00  0.00    +0.174 C 
BRANCH  10  11
ATOM     11  CG  ARG A   1     -27.186 -12.610  -5.988  0.00  0.00    +0.045 C 
BRANCH  11  12
ATOM     12  CB  ARG A   1     -26.837 -11.874  -4.703  0.00  0.00    +0.029 C 
BRANCH  12  13
ATOM     13  CA  ARG A   1     -26.415 -12.795  -3.556  0.00  0.00    +0.133 C 
BRANCH  13  14
ATOM     14  N   ARG A   1     -27.516 -13.646  -3.120  0.00  0.00    -0.239 NA
ATOM     15  H   ARG A   1     -28.495 -13.326  -3.266  0.00  0.00    +0.142 HD
ENDBRANCH  13  14
BRANCH  13  16
ATOM     16  C   ARG A   1     -25.968 -11.986  -2.347  0.00  0.00    +0.224 C 
ATOM     17  O   ARG A   1     -26.470 -10.897  -2.099  0.00  0.00    -0.287 OA
ENDBRANCH  13  16
ENDBRANCH  12  13
ENDBRANCH  11  12
ENDBRANCH  10  11
ENDBRANCH   1  10
TORSDOF 6
REMARK  Name = ../refined-set-2016/4ovh/4ovh_pocket.pdb
REMARK  113 active torsions:
REMARK  status: ('A' for Active; 'I' for Inactive)
REMARK    1  A    between atoms: _1  and  _3
REMARK    2  A    between atoms: _3  and  _4
REMARK    3  A    between atoms: _3  and  _6
REMARK    4  A    between atoms: _6  and  _7
REMARK    5  A    between atoms: _9  and  _11
REMARK    6  A    between atoms: _11  and  _12
REMARK    7  A    between atoms: _11  and  _14
REMARK    8  A    between atoms: _14  and  _15
REMARK    9  A    between atoms: _18  and  _20
REMARK   10  A    between atoms: _20  and  _21
REMARK   11  A    between atoms: _20  and  _23
REMARK   12  A    between atoms: _23  and  _24
REMARK   13  A    between atoms: _24  and  _25
REMARK   14  A    between atoms: _25  and  _26
REMARK   15  A    between atoms: _35  and  _37
REMARK   16  A    between atoms: _37  and  _38
REMARK   17  A    between atoms: _37  and  _40
REMARK   18  A    between atoms: _40  and  _41
REMARK   19  A    between atoms: _46  and  _47
REMARK   20  A    between atoms: _49  and  _51
REMARK   21  A    between atoms: _51  and  _52
REMARK   22  A    between atoms: _51  and  _54
REMARK   23  A    between atoms: _54  and  _55
REMARK   24  A    between atoms: _58  and  _60
REMARK   25  A    between atoms: _60  and  _61
REMARK   26  A    between atoms: _64  and  _66
REMARK   27  A    between atoms: _66  and  _67
REMARK   28  A    between atoms: _66  and  _69
REMARK   29  A    between atoms: _69  and  _70
REMARK   30  A    between atoms: _73  and  _75
REMARK   31  A    between atoms: _75  and  _76
REMARK   32  A    between atoms: _75  and  _78
REMARK   33  A    between atoms: _78  and  _79
REMARK   34  A    between atoms: _82  and  _84
REMARK   35  A    between atoms: _84  and  _85
REMARK   36  A    between atoms: _87  and  _89
REMARK   37  A    between atoms: _89  and  _90
REMARK   38  A    between atoms: _89  and  _92
REMARK   39  A    between atoms: _92  and  _93
REMARK   40  A    between atoms: _98  and  _100
REMARK   41  A    between atoms: _100  and  _101
REMARK   42  A    between atoms: _100  and  _103
REMARK   43  A    between atoms: _103  and  _104
REMARK   44  A    between atoms: _104  and  _105
REMARK   45  A    between atoms: _105  and  _106
REMARK   46  A    between atoms: _115  and  _117
REMARK   47  A    between atoms: _117  and  _118
REMARK   48  A    between atoms: _117  and  _120
REMARK   49  A    between atoms: _120  and  _121
REMARK   50  A    between atoms: _124  and  _126
REMARK   51  A    between atoms: _126  and  _127
REMARK   52  A    between atoms: _130  and  _132
REMARK   53  A    between atoms: _132  and  _133
REMARK   54  A    between atoms: _132  and  _135
REMARK   55  A    between atoms: _135  and  _136
REMARK   56  A    between atoms: _136  and  _137
REMARK   57  A    between atoms: _137  and  _138
REMARK   58  A    between atoms: _147  and  _149
REMARK   59  A    between atoms: _149  and  _150
REMARK   60  A    between atoms: _149  and  _152
REMARK   61  A    between atoms: _152  and  _153
REMARK   62  A    between atoms: _160  and  _161
REMARK   63  A    between atoms: _166  and  _168
REMARK   64  A    between atoms: _168  and  _169
REMARK   65  A    between atoms: _168  and  _171
REMARK   66  A    between atoms: _171  and  _172
REMARK   67  A    between atoms: _175  and  _177
REMARK   68  A    between atoms: _177  and  _178
REMARK   69  A    between atoms: _177  and  _180
REMARK   70  A    between atoms: _180  and  _181
REMARK   71  A    between atoms: _186  and  _187
REMARK   72  A    between atoms: _189  and  _191
REMARK   73  A    between atoms: _191  and  _192
REMARK   74  A    between atoms: _191  and  _194
REMARK   75  A    between atoms: _194  and  _195
REMARK   76  A    between atoms: _195  and  _196
REMARK   77  A    between atoms: _196  and  _197
REMARK   78  A    between atoms: _206  and  _208
REMARK   79  A    between atoms: _208  and  _209
REMARK   80  A    between atoms: _208  and  _211
REMARK   81  A    between atoms: _214  and  _216
REMARK   82  A    between atoms: _216  and  _217
REMARK   83  A    between atoms: _216  and  _219
REMARK   84  A    between atoms: _219  and  _220
REMARK   85  A    between atoms: _223  and  _225
REMARK   86  A    between atoms: _225  and  _226
REMARK   87  A    between atoms: _225  and  _228
REMARK   88  A    between atoms: _228  and  _229
REMARK   89  A    between atoms: _234  and  _235
REMARK   90  A    between atoms: _237  and  _239
REMARK   91  A    between atoms: _239  and  _240
REMARK   92  A    between atoms: _239  and  _242
REMARK   93  A    between atoms: _242  and  _243
REMARK   94  A    between atoms: _245  and  _247
REMARK   95  A    between atoms: _247  and  _248
REMARK   96  A    between atoms: _247  and  _250
REMARK   97  A    between atoms: _253  and  _255
REMARK   98  A    between atoms: _255  and  _256
REMARK   99  A    between atoms: _255  and  _258
REMARK  100  A    between atoms: _258  and  _259
REMARK  101  A    between atoms: _264  and  _265
REMARK  102  A    between atoms: _267  and  _269
REMARK  103  A    between atoms: _269  and  _270
REMARK  104  A    between atoms: _269  and  _272
REMARK  105  A    between atoms: _275  and  _277
REMARK  106  A    between atoms: _277  and  _278
REMARK  107  A    between atoms: _277  and  _280
REMARK  108  A    between atoms: _283  and  _285
REMARK  109  A    between atoms: _285  and  _286
REMARK  110  A    between atoms: _285  and  _288
REMARK  111  A    between atoms: _288  and  _289
REMARK  112  A    between atoms: _289  and  _290
REMARK  113  A    between atoms: _293  and  _294
REMARK                            x       y       z     vdW  Elec       q    Type
REMARK                         _______ _______ _______ _____ _____    ______ ____
ROOT
ATOM      1  CA  TYR A   1     -22.965  -8.900  -2.048  0.00  0.00    +0.149 C 
ENDROOT
BRANCH   1   2
ATOM      2  C   TYR A   1     -24.039  -7.775  -2.018  0.00  0.00    +0.239 C 
ATOM      3  O   TYR A   1     -23.704  -6.603  -1.840  0.00  0.00    -0.274 OA
ATOM      4  N   LEU A   2     -25.313  -8.142  -2.169  0.00  0.00    -0.298 N 
ATOM      5  H   LEU A   2     -25.524  -9.147  -2.332  0.00  0.00    +0.150 HD
BRANCH   4   6
ATOM      6  CA  LEU A   2     -26.435  -7.189  -2.116  0.00  0.00    +0.137 C 
BRANCH   6   7
ATOM      7  C   LEU A   2     -26.966  -6.928  -0.702  0.00  0.00    +0.227 C 
ATOM      8  O   LEU A   2     -27.743  -5.985  -0.504  0.00  0.00    -0.286 OA
ENDBRANCH   6   7
BRANCH   6   9
ATOM      9  CB  LEU A   2     -27.610  -7.691  -2.983  0.00  0.00    +0.028 C 
BRANCH   9  10
ATOM     10  CG  LEU A   2     -27.392  -7.837  -4.499  0.00  0.00    +0.002 C 
ATOM     11  CD2 LEU A   2     -26.799  -6.571  -5.105  0.00  0.00    +0.000 C 
ATOM     12  CD1 LEU A   2     -28.713  -8.172  -5.172  0.00  0.00    +0.000 C 
ENDBRANCH   9  10
ENDBRANCH   6   9
ENDBRANCH   4   6
ENDBRANCH   1   2
BRANCH   1  13
ATOM     13  N   TYR A   1     -23.489 -10.247  -1.743  0.00  0.00    -0.238 NA
ATOM     14  H   TYR A   1     -23.455 -10.987  -2.473  0.00  0.00    +0.142 HD
ENDBRANCH   1  13
BRANCH   1  15
ATOM     15  CB  TYR A   1     -22.166  -8.892  -3.374  0.00  0.00    +0.053 C 
BRANCH  15  16
ATOM     16  CG  TYR A   1     -22.907  -9.388  -4.607  0.00  0.00    -0.020 A 
ATOM     17  CD2 TYR A   1     -22.865 -10.743  -4.979  0.00  0.00    -0.001 A 
ATOM     18  CE2 TYR A   1     -23.539 -11.202  -6.103  0.00  0.00    +0.036 A 
ATOM     19  CZ  TYR A   1     -24.258 -10.311  -6.885  0.00  0.00    +0.134 A 
ATOM     20  CE1 TYR A   1     -24.297  -8.955  -6.555  0.00  0.00    +0.036 A 
ATOM     21  CD1 TYR A   1     -23.623  -8.501  -5.423  0.00  0.00    -0.001 A 
BRANCH  19  22
ATOM     22  OH  TYR A   1     -24.923 -10.769  -8.005  0.00  0.00    -0.506 OA
ATOM     23  HH  TYR A   1     -25.383 -10.012  -8.447  0.00  0.00    +0.292 HD
ENDBRANCH  19  22
ENDBRANCH  15  16
ENDBRANCH   1  15
TORSDOF 9
REMARK  Name = ../refined-set-2016/4ovh/4ovh_pocket.pdb
REMARK  113 active torsions:
REMARK  status: ('A' for Active; 'I' for Inactive)
REMARK    1  A    between atoms: _1  and  _3
REMARK    2  A    between atoms: _3  and  _4
REMARK    3  A    between atoms: _3  and  _6
REMARK    4  A    between atoms: _6  and  _7
REMARK    5  A    between atoms: _9  and  _11
REMARK    6  A    between atoms: _11  and  _12
REMARK    7  A    between atoms: _11  and  _14
REMARK    8  A    between atoms: _14  and  _15
REMARK    9  A    between atoms: _18  and  _20
REMARK   10  A    between atoms: _20  and  _21
REMARK   11  A    between atoms: _20  and  _23
REMARK   12  A    between atoms: _23  and  _24
REMARK   13  A    between atoms: _24  and  _25
REMARK   14  A    between atoms: _25  and  _26
REMARK   15  A    between atoms: _35  and  _37
REMARK   16  A    between atoms: _37  and  _38
REMARK   17  A    between atoms: _37  and  _40
REMARK   18  A    between atoms: _40  and  _41
REMARK   19  A    between atoms: _46  and  _47
REMARK   20  A    between atoms: _49  and  _51
REMARK   21  A    between atoms: _51  and  _52
REMARK   22  A    between atoms: _51  and  _54
REMARK   23  A    between atoms: _54  and  _55
REMARK   24  A    between atoms: _58  and  _60
REMARK   25  A    between atoms: _60  and  _61
REMARK   26  A    between atoms: _64  and  _66
REMARK   27  A    between atoms: _66  and  _67
REMARK   28  A    between atoms: _66  and  _69
REMARK   29  A    between atoms: _69  and  _70
REMARK   30  A    between atoms: _73  and  _75
REMARK   31  A    between atoms: _75  and  _76
REMARK   32  A    between atoms: _75  and  _78
REMARK   33  A    between atoms: _78  and  _79
REMARK   34  A    between atoms: _82  and  _84
REMARK   35  A    between atoms: _84  and  _85
REMARK   36  A    between atoms: _87  and  _89
REMARK   37  A    between atoms: _89  and  _90
REMARK   38  A    between atoms: _89  and  _92
REMARK   39  A    between atoms: _92  and  _93
REMARK   40  A    between atoms: _98  and  _100
REMARK   41  A    between atoms: _100  and  _101
REMARK   42  A    between atoms: _100  and  _103
REMARK   43  A    between atoms: _103  and  _104
REMARK   44  A    between atoms: _104  and  _105
REMARK   45  A    between atoms: _105  and  _106
REMARK   46  A    between atoms: _115  and  _117
REMARK   47  A    between atoms: _117  and  _118
REMARK   48  A    between atoms: _117  and  _120
REMARK   49  A    between atoms: _120  and  _121
REMARK   50  A    between atoms: _124  and  _126
REMARK   51  A    between atoms: _126  and  _127
REMARK   52  A    between atoms: _130  and  _132
REMARK   53  A    between atoms: _132  and  _133
REMARK   54  A    between atoms: _132  and  _135
REMARK   55  A    between atoms: _135  and  _136
REMARK   56  A    between atoms: _136  and  _137
REMARK   57  A    between atoms: _137  and  _138
REMARK   58  A    between atoms: _147  and  _149
REMARK   59  A    between atoms: _149  and  _150
REMARK   60  A    between atoms: _149  and  _152
REMARK   61  A    between atoms: _152  and  _153
REMARK   62  A    between atoms: _160  and  _161
REMARK   63  A    between atoms: _166  and  _168
REMARK   64  A    between atoms: _168  and  _169
REMARK   65  A    between atoms: _168  and  _171
REMARK   66  A    between atoms: _171  and  _172
REMARK   67  A    between atoms: _175  and  _177
REMARK   68  A    between atoms: _177  and  _178
REMARK   69  A    between atoms: _177  and  _180
REMARK   70  A    between atoms: _180  and  _181
REMARK   71  A    between atoms: _186  and  _187
REMARK   72  A    between atoms: _189  and  _191
REMARK   73  A    between atoms: _191  and  _192
REMARK   74  A    between atoms: _191  and  _194
REMARK   75  A    between atoms: _194  and  _195
REMARK   76  A    between atoms: _195  and  _196
REMARK   77  A    between atoms: _196  and  _197
REMARK   78  A    between atoms: _206  and  _208
REMARK   79  A    between atoms: _208  and  _209
REMARK   80  A    between atoms: _208  and  _211
REMARK   81  A    between atoms: _214  and  _216
REMARK   82  A    between atoms: _216  and  _217
REMARK   83  A    between atoms: _216  and  _219
REMARK   84  A    between atoms: _219  and  _220
REMARK   85  A    between atoms: _223  and  _225
REMARK   86  A    between atoms: _225  and  _226
REMARK   87  A    between atoms: _225  and  _228
REMARK   88  A    between atoms: _228  and  _229
REMARK   89  A    between atoms: _234  and  _235
REMARK   90  A    between atoms: _237  and  _239
REMARK   91  A    between atoms: _239  and  _240
REMARK   92  A    between atoms: _239  and  _242
REMARK   93  A    between atoms: _242  and  _243
REMARK   94  A    between atoms: _245  and  _247
REMARK   95  A    between atoms: _247  and  _248
REMARK   96  A    between atoms: _247  and  _250
REMARK   97  A    between atoms: _253  and  _255
REMARK   98  A    between atoms: _255  and  _256
REMARK   99  A    between atoms: _255  and  _258
REMARK  100  A    between atoms: _258  and  _259
REMARK  101  A    between atoms: _264  and  _265
REMARK  102  A    between atoms: _267  and  _269
REMARK  103  A    between atoms: _269  and  _270
REMARK  104  A    between atoms: _269  and  _272
REMARK  105  A    between atoms: _275  and  _277
REMARK  106  A    between atoms: _277  and  _278
REMARK  107  A    between atoms: _277  and  _280
REMARK  108  A    between atoms: _283  and  _285
REMARK  109  A    between atoms: _285  and  _286
REMARK  110  A    between atoms: _285  and  _288
REMARK  111  A    between atoms: _288  and  _289
REMARK  112  A    between atoms: _289  and  _290
REMARK  113  A    between atoms: _293  and  _294
REMARK                            x       y       z     vdW  Elec       q    Type
REMARK                         _______ _______ _______ _____ _____    ______ ____
ROOT
ATOM      1  CA  HIS A   5     -35.779  -4.891  -7.786  0.00  0.00    +0.155 C 
ENDROOT
BRANCH   1   3
ATOM      2  C   GLY A   4     -33.632  -6.003  -8.172  0.00  0.00    +0.243 C 
ATOM      3  N   HIS A   5     -34.486  -5.419  -7.336  0.00  0.00    -0.297 N 
ATOM      4  H   HIS A   5     -34.229  -5.334  -6.332  0.00  0.00    +0.150 HD
ATOM      5  O   GLY A   4     -33.872  -6.161  -9.372  0.00  0.00    -0.273 OA
BRANCH   2   6
ATOM      6  CA  GLY A   4     -32.316  -6.482  -7.580  0.00  0.00    +0.176 C 
BRANCH   6   9
ATOM      7  C   ASP A   3     -32.229  -6.470  -5.129  0.00  0.00    +0.241 C 
ATOM      8  O   ASP A   3     -32.702  -7.603  -5.043  0.00  0.00    -0.273 OA
ATOM      9  N   GLY A   4     -31.983  -5.865  -6.291  0.00  0.00    -0.295 N 
ATOM     10  H   GLY A   4     -31.540  -4.924  -6.284  0.00  0.00    +0.150 HD
BRANCH   7  11
ATOM     11  CA  ASP A   3     -31.892  -5.678  -3.869  0.00  0.00    +0.160 C 
BRANCH  11  14
ATOM     12  C   THR A   2     -30.286  -3.846  -3.930  0.00  0.00    +0.243 C 
ATOM     13  O   THR A   2     -29.422  -4.499  -3.339  0.00  0.00    -0.273 OA
ATOM     14  N   ASP A   3     -31.511  -4.302  -4.176  0.00  0.00    -0.296 N 
ATOM     15  H   ASP A   3     -32.215  -3.663  -4.597  0.00  0.00    +0.150 HD
BRANCH  12  16
ATOM     16  CA  THR A   2     -29.990  -2.438  -4.388  0.00  0.00    +0.176 C 
BRANCH  16  18
ATOM     17  C   ALA A   1     -28.864  -0.611  -3.247  0.00  0.00    +0.238 C 
ATOM     18  N   THR A   2     -28.971  -1.908  -3.498  0.00  0.00    -0.295 N 
ATOM     19  H   THR A   2     -28.306  -2.566  -3.044  0.00  0.00    +0.150 HD
ATOM     20  O   ALA A   1     -29.591   0.242  -3.764  0.00  0.00    -0.274 OA
BRANCH  17  21
ATOM     21  CA  ALA A   1     -27.767  -0.212  -2.289  0.00  0.00    +0.145 C 
ATOM     22  CB  ALA A   1     -28.345   0.132  -0.930  0.00  0.00    +0.028 C 
BRANCH  21  23
ATOM     23  N   ALA A   1     -27.083   0.933  -2.852  0.00  0.00    -0.238 NA
ATOM     24  H   ALA A   1     -27.631   1.618  -3.411  0.00  0.00    +0.142 HD
ENDBRANCH  21  23
ENDBRANCH  17  21
ENDBRANCH  16  18
BRANCH  16  25
ATOM     25  CB  THR A   2     -29.534  -2.440  -5.865  0.00  0.00    +0.137 C 
ATOM     26  CG2 THR A   2     -28.269  -3.269  -6.071  0.00  0.00    +0.034 C 
BRANCH  25  27
ATOM     27  OG1 THR A   2     -30.569  -2.968  -6.708  0.00  0.00    -0.382 OA
ATOM     28  HG1 THR A   2     -31.381  -2.408  -6.622  0.00  0.00    +0.210 HD
ENDBRANCH  25  27
ENDBRANCH  16  25
ENDBRANCH  12  16
ENDBRANCH  11  14
BRANCH  11  29
ATOM     29  CB  ASP A   3     -33.062  -5.711  -2.873  0.00  0.00    +0.143 C 
BRANCH  29  30
ATOM     30  CG  ASP A   3     -34.277  -4.913  -3.342  0.00  0.00    +0.367 C 
ATOM     31  OD2 ASP A   3     -35.158  -4.680  -2.488  0.00  0.00    -0.246 OA
ATOM     32  OD1 ASP A   3     -34.364  -4.517  -4.527  0.00  0.00    -0.246 OA
ENDBRANCH  29  30
ENDBRANCH  11  29
ENDBRANCH   7  11
ENDBRANCH   6   9
ENDBRANCH   2   6
ENDBRANCH   1   3
BRANCH   1  33
ATOM     33  C   HIS A   5     -35.770  -3.376  -7.842  0.00  0.00    +0.241 C 
ATOM     34  N   ARG A   6     -35.077  -2.755  -6.891  0.00  0.00    -0.297 N 
ATOM     35  H   ARG A   6     -34.625  -3.326  -6.148  0.00  0.00    +0.150 HD
ATOM     36  O   HIS A   5     -36.382  -2.782  -8.731  0.00  0.00    -0.273 OA
BRANCH  34  37
ATOM     37  CA  ARG A   6     -34.927  -1.302  -6.850  0.00  0.00    +0.149 C 
BRANCH  37  38
ATOM     38  C   ARG A   6     -33.517  -0.934  -6.387  0.00  0.00    +0.241 C 
ATOM     39  O   ARG A   6     -32.801  -1.785  -5.860  0.00  0.00    -0.273 OA
ATOM     40  N   LEU A   7     -33.125   0.321  -6.612  0.00  0.00    -0.297 N 
ATOM     41  H   LEU A   7     -33.805   0.990  -7.027  0.00  0.00    +0.150 HD
BRANCH  40  42
ATOM     42  CA  LEU A   7     -31.773   0.796  -6.297  0.00  0.00    +0.149 C 
BRANCH  42  43
ATOM     43  C   LEU A   7     -31.781   2.234  -5.816  0.00  0.00    +0.241 C 
ATOM     44  N   ALA A   8     -30.847   2.529  -4.923  0.00  0.00    -0.298 N 
ATOM     45  H   ALA A   8     -30.246   1.759  -4.566  0.00  0.00    +0.150 HD
ATOM     46  O   LEU A   7     -32.615   3.048  -6.242  0.00  0.00    -0.273 OA
BRANCH  44  47
ATOM     47  CA  ALA A   8     -30.620   3.867  -4.418  0.00  0.00    +0.137 C 
ATOM     48  CB  ALA A   8     -31.120   3.963  -2.990  0.00  0.00    +0.030 C 
BRANCH  47  49
ATOM     49  C   ALA A   8     -29.124   4.192  -4.498  0.00  0.00    +0.227 C 
ATOM     50  O   ALA A   8     -28.289   3.340  -4.173  0.00  0.00    -0.286 OA
ENDBRANCH  47  49
ENDBRANCH  44  47
ENDBRANCH  42  43
BRANCH  42  51
ATOM     51  CB  LEU A   7     -30.852   0.669  -7.521  0.00  0.00    +0.029 C 
BRANCH  51  52
ATOM     52  CG  LEU A   7     -29.419   1.241  -7.441  0.00  0.00    +0.002 C 
ATOM     53  CD2 LEU A   7     -29.336   2.681  -7.953  0.00  0.00    +0.000 C 
ATOM     54  CD1 LEU A   7     -28.433   0.355  -8.195  0.00  0.00    +0.000 C 
ENDBRANCH  51  52
ENDBRANCH  42  51
ENDBRANCH  40  42
ENDBRANCH  37  38
BRANCH  37  55
ATOM     55  CB  ARG A   6     -36.003  -0.664  -5.966  0.00  0.00    +0.033 C 
BRANCH  55  56
ATOM     56  CG  ARG A   6     -36.420  -1.464  -4.737  0.00  0.00    +0.045 C 
BRANCH  56  57
ATOM     57  CD  ARG A   6     -35.422  -1.311  -3.606  0.00  0.00    +0.174 C 
BRANCH  57  58
ATOM     58  NE  ARG A   6     -35.809  -2.033  -2.397  0.00  0.00    -0.265 N 
ATOM     59  CZ  ARG A   6     -36.681  -1.598  -1.489  0.00  0.00    +0.342 C 
ATOM     60  NH2 ARG A   6     -36.933  -2.353  -0.431  0.00  0.00    -0.292 N 
ATOM     61 HH21 ARG A   6     -37.611  -2.030   0.289  0.00  0.00    +0.255 HD
ATOM     62 HH22 ARG A   6     -36.453  -3.269  -0.320  0.00  0.00    +0.255 HD
ATOM     63  NH1 ARG A   6     -37.302  -0.423  -1.622  0.00  0.00    -0.292 N 
ATOM     64 HH11 ARG A   6     -37.978  -0.107  -0.898  0.00  0.00    +0.255 HD
ATOM     65 HH12 ARG A   6     -37.109   0.176  -2.450  0.00  0.00    +0.255 HD
ATOM     66  HE  ARG A   6     -35.369  -2.961  -2.232  0.00  0.00    +0.259 HD
ENDBRANCH  57  58
ENDBRANCH  56  57
ENDBRANCH  55  56
ENDBRANCH  37  55
ENDBRANCH  34  37
ENDBRANCH   1  33
BRANCH   1  67
ATOM     67  CB  HIS A   5     -36.891  -5.368  -6.862  0.00  0.00    +0.076 C 
BRANCH  67  68
ATOM     68  CG  HIS A   5     -36.956  -6.855  -6.734  0.00  0.00    +0.082 A 
ATOM     69  ND1 HIS A   5     -36.686  -7.513  -5.553  0.00  0.00    -0.227 NA
ATOM     70  CE1 HIS A   5     -36.798  -8.816  -5.743  0.00  0.00    +0.199 A 
ATOM     71  NE2 HIS A   5     -37.117  -9.028  -7.008  0.00  0.00    -0.221 NA
ATOM     72  CD2 HIS A   5     -37.216  -7.817  -7.652  0.00  0.00    +0.115 A 
ENDBRANCH  67  68
ENDBRANCH   1  67
TORSDOF 28
REMARK  Name = ../refined-set-2016/4ovh/4ovh_pocket.pdb
REMARK  113 active torsions:
REMARK  status: ('A' for Active; 'I' for Inactive)
REMARK    1  A    between atoms: _1  and  _3
REMARK    2  A    between atoms: _3  and  _4
REMARK    3  A    between atoms: _3  and  _6
REMARK    4  A    between atoms: _6  and  _7
REMARK    5  A    between atoms: _9  and  _11
REMARK    6  A    between atoms: _11  and  _12
REMARK    7  A    between atoms: _11  and  _14
REMARK    8  A    between atoms: _14  and  _15
REMARK    9  A    between atoms: _18  and  _20
REMARK   10  A    between atoms: _20  and  _21
REMARK   11  A    between atoms: _20  and  _23
REMARK   12  A    between atoms: _23  and  _24
REMARK   13  A    between atoms: _24  and  _25
REMARK   14  A    between atoms: _25  and  _26
REMARK   15  A    between atoms: _35  and  _37
REMARK   16  A    between atoms: _37  and  _38
REMARK   17  A    between atoms: _37  and  _40
REMARK   18  A    between atoms: _40  and  _41
REMARK   19  A    between atoms: _46  and  _47
REMARK   20  A    between atoms: _49  and  _51
REMARK   21  A    between atoms: _51  and  _52
REMARK   22  A    between atoms: _51  and  _54
REMARK   23  A    between atoms: _54  and  _55
REMARK   24  A    between atoms: _58  and  _60
REMARK   25  A    between atoms: _60  and  _61
REMARK   26  A    between atoms: _64  and  _66
REMARK   27  A    between atoms: _66  and  _67
REMARK   28  A    between atoms: _66  and  _69
REMARK   29  A    between atoms: _69  and  _70
REMARK   30  A    between atoms: _73  and  _75
REMARK   31  A    between atoms: _75  and  _76
REMARK   32  A    between atoms: _75  and  _78
REMARK   33  A    between atoms: _78  and  _79
REMARK   34  A    between atoms: _82  and  _84
REMARK   35  A    between atoms: _84  and  _85
REMARK   36  A    between atoms: _87  and  _89
REMARK   37  A    between atoms: _89  and  _90
REMARK   38  A    between atoms: _89  and  _92
REMARK   39  A    between atoms: _92  and  _93
REMARK   40  A    between atoms: _98  and  _100
REMARK   41  A    between atoms: _100  and  _101
REMARK   42  A    between atoms: _100  and  _103
REMARK   43  A    between atoms: _103  and  _104
REMARK   44  A    between atoms: _104  and  _105
REMARK   45  A    between atoms: _105  and  _106
REMARK   46  A    between atoms: _115  and  _117
REMARK   47  A    between atoms: _117  and  _118
REMARK   48  A    between atoms: _117  and  _120
REMARK   49  A    between atoms: _120  and  _121
REMARK   50  A    between atoms: _124  and  _126
REMARK   51  A    between atoms: _126  and  _127
REMARK   52  A    between atoms: _130  and  _132
REMARK   53  A    between atoms: _132  and  _133
REMARK   54  A    between atoms: _132  and  _135
REMARK   55  A    between atoms: _135  and  _136
REMARK   56  A    between atoms: _136  and  _137
REMARK   57  A    between atoms: _137  and  _138
REMARK   58  A    between atoms: _147  and  _149
REMARK   59  A    between atoms: _149  and  _150
REMARK   60  A    between atoms: _149  and  _152
REMARK   61  A    between atoms: _152  and  _153
REMARK   62  A    between atoms: _160  and  _161
REMARK   63  A    between atoms: _166  and  _168
REMARK   64  A    between atoms: _168  and  _169
REMARK   65  A    between atoms: _168  and  _171
REMARK   66  A    between atoms: _171  and  _172
REMARK   67  A    between atoms: _175  and  _177
REMARK   68  A    between atoms: _177  and  _178
REMARK   69  A    between atoms: _177  and  _180
REMARK   70  A    between atoms: _180  and  _181
REMARK   71  A    between atoms: _186  and  _187
REMARK   72  A    between atoms: _189  and  _191
REMARK   73  A    between atoms: _191  and  _192
REMARK   74  A    between atoms: _191  and  _194
REMARK   75  A    between atoms: _194  and  _195
REMARK   76  A    between atoms: _195  and  _196
REMARK   77  A    between atoms: _196  and  _197
REMARK   78  A    between atoms: _206  and  _208
REMARK   79  A    between atoms: _208  and  _209
REMARK   80  A    between atoms: _208  and  _211
REMARK   81  A    between atoms: _214  and  _216
REMARK   82  A    between atoms: _216  and  _217
REMARK   83  A    between atoms: _216  and  _219
REMARK   84  A    between atoms: _219  and  _220
REMARK   85  A    between atoms: _223  and  _225
REMARK   86  A    between atoms: _225  and  _226
REMARK   87  A    between atoms: _225  and  _228
REMARK   88  A    between atoms: _228  and  _229
REMARK   89  A    between atoms: _234  and  _235
REMARK   90  A    between atoms: _237  and  _239
REMARK   91  A    between atoms: _239  and  _240
REMARK   92  A    between atoms: _239  and  _242
REMARK   93  A    between atoms: _242  and  _243
REMARK   94  A    between atoms: _245  and  _247
REMARK   95  A    between atoms: _247  and  _248
REMARK   96  A    between atoms: _247  and  _250
REMARK   97  A    between atoms: _253  and  _255
REMARK   98  A    between atoms: _255  and  _256
REMARK   99  A    between atoms: _255  and  _258
REMARK  100  A    between atoms: _258  and  _259
REMARK  101  A    between atoms: _264  and  _265
REMARK  102  A    between atoms: _267  and  _269
REMARK  103  A    between atoms: _269  and  _270
REMARK  104  A    between atoms: _269  and  _272
REMARK  105  A    between atoms: _275  and  _277
REMARK  106  A    between atoms: _277  and  _278
REMARK  107  A    between atoms: _277  and  _280
REMARK  108  A    between atoms: _283  and  _285
REMARK  109  A    between atoms: _285  and  _286
REMARK  110  A    between atoms: _285  and  _288
REMARK  111  A    between atoms: _288  and  _289
REMARK  112  A    between atoms: _289  and  _290
REMARK  113  A    between atoms: _293  and  _294
REMARK                            x       y       z     vdW  Elec       q    Type
REMARK                         _______ _______ _______ _____ _____    ______ ____
ROOT
ATOM      1  C   PHE A   2     -21.837  -4.860  -8.208  0.00  0.00    +0.244 C 
ATOM      2  N   PRO A   3     -23.144  -4.736  -8.485  0.00  0.00    -0.272 N 
ATOM      3  CD  PRO A   3     -24.284  -5.161  -7.650  0.00  0.00    +0.094 C 
ATOM      4  CG  PRO A   3     -25.436  -4.431  -8.251  0.00  0.00    +0.024 C 
ATOM      5  CB  PRO A   3     -25.112  -4.288  -9.697  0.00  0.00    +0.031 C 
ATOM      6  CA  PRO A   3     -23.583  -4.167  -9.760  0.00  0.00    +0.152 C 
ATOM      7  O   PHE A   2     -20.957  -4.567  -9.017  0.00  0.00    -0.273 OA
ENDROOT
BRANCH   6   8
ATOM      8  C   PRO A   3     -23.182  -2.703  -9.931  0.00  0.00    +0.241 C 
ATOM      9  O   PRO A   3     -22.928  -2.004  -8.947  0.00  0.00    -0.273 OA
ATOM     10  N   ASP A   4     -23.130  -2.268 -11.185  0.00  0.00    -0.297 N 
ATOM     11  H   ASP A   4     -23.388  -2.924 -11.949  0.00  0.00    +0.150 HD
BRANCH  10  12
ATOM     12  CA  ASP A   4     -22.728  -0.915 -11.538  0.00  0.00    +0.160 C 
BRANCH  12  13
ATOM     13  C   ASP A   4     -23.973  -0.037 -11.680  0.00  0.00    +0.241 C 
ATOM     14  N   TYR A   5     -24.147   0.882 -10.733  0.00  0.00    -0.298 N 
ATOM     15  H   TYR A   5     -23.403   1.010 -10.018  0.00  0.00    +0.150 HD
ATOM     16  O   ASP A   4     -24.746  -0.182 -12.628  0.00  0.00    -0.273 OA
BRANCH  14  17
ATOM     17  CA  TYR A   5     -25.349   1.721 -10.660  0.00  0.00    +0.141 C 
BRANCH  17  18
ATOM     18  C   TYR A   5     -25.656   2.476 -11.963  0.00  0.00    +0.227 C 
ATOM     19  O   TYR A   5     -26.818   2.790 -12.247  0.00  0.00    -0.286 OA
ENDBRANCH  17  18
BRANCH  17  20
ATOM     20  CB  TYR A   5     -25.230   2.714  -9.498  0.00  0.00    +0.054 C 
BRANCH  20  21
ATOM     21  CG  TYR A   5     -24.332   3.912  -9.755  0.00  0.00    -0.020 A 
ATOM     22  CD2 TYR A   5     -22.978   3.871  -9.439  0.00  0.00    -0.001 A 
ATOM     23  CE2 TYR A   5     -22.156   4.963  -9.659  0.00  0.00    +0.036 A 
ATOM     24  CZ  TYR A   5     -22.693   6.124 -10.191  0.00  0.00    +0.134 A 
ATOM     25  CE1 TYR A   5     -24.041   6.205 -10.493  0.00  0.00    +0.036 A 
ATOM     26  CD1 TYR A   5     -24.853   5.101 -10.274  0.00  0.00    -0.001 A 
BRANCH  24  27
ATOM     27  OH  TYR A   5     -21.878   7.199 -10.406  0.00  0.00    -0.506 OA
ATOM     28  HH  TYR A   5     -22.198   7.967  -9.869  0.00  0.00    +0.292 HD
ENDBRANCH  24  27
ENDBRANCH  20  21
ENDBRANCH  17  20
ENDBRANCH  14  17
ENDBRANCH  12  13
BRANCH  12  29
ATOM     29  CB  ASP A   4     -21.920  -0.957 -12.839  0.00  0.00    +0.143 C 
BRANCH  29  30
ATOM     30  CG  ASP A   4     -21.585   0.418 -13.385  0.00  0.00    +0.367 C 
ATOM     31  OD2 ASP A   4     -22.054   1.440 -12.848  0.00  0.00    -0.246 OA
ATOM     32  OD1 ASP A   4     -20.844   0.472 -14.382  0.00  0.00    -0.246 OA
ENDBRANCH  29  30
ENDBRANCH  12  29
ENDBRANCH  10  12
ENDBRANCH   6   8
BRANCH   1  33
ATOM     33  CA  PHE A   2     -21.457  -5.402  -6.829  0.00  0.00    +0.153 C 
BRANCH  33  35
ATOM     34  C   ARG A   1     -20.266  -7.395  -7.568  0.00  0.00    +0.238 C 
ATOM     35  N   PHE A   2     -20.268  -6.205  -6.979  0.00  0.00    -0.297 N 
ATOM     36  H   PHE A   2     -19.370  -5.834  -6.608  0.00  0.00    +0.150 HD
ATOM     37  O   ARG A   1     -21.276  -7.940  -8.020  0.00  0.00    -0.274 OA
BRANCH  34  38
ATOM     38  CA  ARG A   1     -18.897  -8.058  -7.679  0.00  0.00    +0.145 C 
BRANCH  38  39
ATOM     39  N   ARG A   1     -18.797  -9.221  -6.802  0.00  0.00    -0.238 NA
ATOM     40  H   ARG A   1     -19.070 -10.153  -7.175  0.00  0.00    +0.142 HD
ENDBRANCH  38  39
BRANCH  38  41
ATOM     41  CB  ARG A   1     -18.668  -8.446  -9.139  0.00  0.00    +0.030 C 
BRANCH  41  42
ATOM     42  CG  ARG A   1     -17.286  -8.977  -9.456  0.00  0.00    +0.045 C 
BRANCH  42  43
ATOM     43  CD  ARG A   1     -17.052  -8.956 -10.954  0.00  0.00    +0.174 C 
BRANCH  43  44
ATOM     44  NE  ARG A   1     -18.170  -9.528 -11.703  0.00  0.00    -0.265 N 
ATOM     45  CZ  ARG A   1     -18.445 -10.832 -11.790  0.00  0.00    +0.342 C 
ATOM     46  NH2 ARG A   1     -17.701 -11.741 -11.163  0.00  0.00    -0.292 N 
ATOM     47 HH21 ARG A   1     -16.886 -11.441 -10.591  0.00  0.00    +0.255 HD
ATOM     48 HH22 ARG A   1     -17.935 -12.751 -11.246  0.00  0.00    +0.255 HD
ATOM     49  NH1 ARG A   1     -19.486 -11.233 -12.503  0.00  0.00    -0.292 N 
ATOM     50 HH11 ARG A   1     -19.707 -12.247 -12.576  0.00  0.00    +0.255 HD
ATOM     51 HH12 ARG A   1     -20.083 -10.534 -12.990  0.00  0.00    +0.255 HD
ATOM     52  HE  ARG A   1     -18.799  -8.870 -12.206  0.00  0.00    +0.259 HD
ENDBRANCH  43  44
ENDBRANCH  42  43
ENDBRANCH  41  42
ENDBRANCH  38  41
ENDBRANCH  34  38
ENDBRANCH  33  35
BRANCH  33  53
ATOM     53  CB  PHE A   2     -21.175  -4.253  -5.854  0.00  0.00    +0.055 C 
BRANCH  53  54
ATOM     54  CG  PHE A   2     -22.404  -3.648  -5.243  0.00  0.00    -0.020 A 
ATOM     55  CD2 PHE A   2     -22.987  -4.220  -4.120  0.00  0.00    -0.004 A 
ATOM     56  CE2 PHE A   2     -24.118  -3.661  -3.546  0.00  0.00    -0.000 A 
ATOM     57  CZ  PHE A   2     -24.670  -2.506  -4.089  0.00  0.00    -0.000 A 
ATOM     58  CE1 PHE A   2     -24.091  -1.922  -5.208  0.00  0.00    -0.000 A 
ATOM     59  CD1 PHE A   2     -22.962  -2.486  -5.773  0.00  0.00    -0.004 A 
ENDBRANCH  53  54
ENDBRANCH  33  53
ENDBRANCH   1  33
TORSDOF 20
REMARK  Name = ../refined-set-2016/4ovh/4ovh_pocket.pdb
REMARK  113 active torsions:
REMARK  status: ('A' for Active; 'I' for Inactive)
REMARK    1  A    between atoms: _1  and  _3
REMARK    2  A    between atoms: _3  and  _4
REMARK    3  A    between atoms: _3  and  _6
REMARK    4  A    between atoms: _6  and  _7
REMARK    5  A    between atoms: _9  and  _11
REMARK    6  A    between atoms: _11  and  _12
REMARK    7  A    between atoms: _11  and  _14
REMARK    8  A    between atoms: _14  and  _15
REMARK    9  A    between atoms: _18  and  _20
REMARK   10  A    between atoms: _20  and  _21
REMARK   11  A    between atoms: _20  and  _23
REMARK   12  A    between atoms: _23  and  _24
REMARK   13  A    between atoms: _24  and  _25
REMARK   14  A    between atoms: _25  and  _26
REMARK   15  A    between atoms: _35  and  _37
REMARK   16  A    between atoms: _37  and  _38
REMARK   17  A    between atoms: _37  and  _40
REMARK   18  A    between atoms: _40  and  _41
REMARK   19  A    between atoms: _46  and  _47
REMARK   20  A    between atoms: _49  and  _51
REMARK   21  A    between atoms: _51  and  _52
REMARK   22  A    between atoms: _51  and  _54
REMARK   23  A    between atoms: _54  and  _55
REMARK   24  A    between atoms: _58  and  _60
REMARK   25  A    between atoms: _60  and  _61
REMARK   26  A    between atoms: _64  and  _66
REMARK   27  A    between atoms: _66  and  _67
REMARK   28  A    between atoms: _66  and  _69
REMARK   29  A    between atoms: _69  and  _70
REMARK   30  A    between atoms: _73  and  _75
REMARK   31  A    between atoms: _75  and  _76
REMARK   32  A    between atoms: _75  and  _78
REMARK   33  A    between atoms: _78  and  _79
REMARK   34  A    between atoms: _82  and  _84
REMARK   35  A    between atoms: _84  and  _85
REMARK   36  A    between atoms: _87  and  _89
REMARK   37  A    between atoms: _89  and  _90
REMARK   38  A    between atoms: _89  and  _92
REMARK   39  A    between atoms: _92  and  _93
REMARK   40  A    between atoms: _98  and  _100
REMARK   41  A    between atoms: _100  and  _101
REMARK   42  A    between atoms: _100  and  _103
REMARK   43  A    between atoms: _103  and  _104
REMARK   44  A    between atoms: _104  and  _105
REMARK   45  A    between atoms: _105  and  _106
REMARK   46  A    between atoms: _115  and  _117
REMARK   47  A    between atoms: _117  and  _118
REMARK   48  A    between atoms: _117  and  _120
REMARK   49  A    between atoms: _120  and  _121
REMARK   50  A    between atoms: _124  and  _126
REMARK   51  A    between atoms: _126  and  _127
REMARK   52  A    between atoms: _130  and  _132
REMARK   53  A    between atoms: _132  and  _133
REMARK   54  A    between atoms: _132  and  _135
REMARK   55  A    between atoms: _135  and  _136
REMARK   56  A    between atoms: _136  and  _137
REMARK   57  A    between atoms: _137  and  _138
REMARK   58  A    between atoms: _147  and  _149
REMARK   59  A    between atoms: _149  and  _150
REMARK   60  A    between atoms: _149  and  _152
REMARK   61  A    between atoms: _152  and  _153
REMARK   62  A    between atoms: _160  and  _161
REMARK   63  A    between atoms: _166  and  _168
REMARK   64  A    between atoms: _168  and  _169
REMARK   65  A    between atoms: _168  and  _171
REMARK   66  A    between atoms: _171  and  _172
REMARK   67  A    between atoms: _175  and  _177
REMARK   68  A    between atoms: _177  and  _178
REMARK   69  A    between atoms: _177  and  _180
REMARK   70  A    between atoms: _180  and  _181
REMARK   71  A    between atoms: _186  and  _187
REMARK   72  A    between atoms: _189  and  _191
REMARK   73  A    between atoms: _191  and  _192
REMARK   74  A    between atoms: _191  and  _194
REMARK   75  A    between atoms: _194  and  _195
REMARK   76  A    between atoms: _195  and  _196
REMARK   77  A    between atoms: _196  and  _197
REMARK   78  A    between atoms: _206  and  _208
REMARK   79  A    between atoms: _208  and  _209
REMARK   80  A    between atoms: _208  and  _211
REMARK   81  A    between atoms: _214  and  _216
REMARK   82  A    between atoms: _216  and  _217
REMARK   83  A    between atoms: _216  and  _219
REMARK   84  A    between atoms: _219  and  _220
REMARK   85  A    between atoms: _223  and  _225
REMARK   86  A    between atoms: _225  and  _226
REMARK   87  A    between atoms: _225  and  _228
REMARK   88  A    between atoms: _228  and  _229
REMARK   89  A    between atoms: _234  and  _235
REMARK   90  A    between atoms: _237  and  _239
REMARK   91  A    between atoms: _239  and  _240
REMARK   92  A    between atoms: _239  and  _242
REMARK   93  A    between atoms: _242  and  _243
REMARK   94  A    between atoms: _245  and  _247
REMARK   95  A    between atoms: _247  and  _248
REMARK   96  A    between atoms: _247  and  _250
REMARK   97  A    between atoms: _253  and  _255
REMARK   98  A    between atoms: _255  and  _256
REMARK   99  A    between atoms: _255  and  _258
REMARK  100  A    between atoms: _258  and  _259
REMARK  101  A    between atoms: _264  and  _265
REMARK  102  A    between atoms: _267  and  _269
REMARK  103  A    between atoms: _269  and  _270
REMARK  104  A    between atoms: _269  and  _272
REMARK  105  A    between atoms: _275  and  _277
REMARK  106  A    between atoms: _277  and  _278
REMARK  107  A    between atoms: _277  and  _280
REMARK  108  A    between atoms: _283  and  _285
REMARK  109  A    between atoms: _285  and  _286
REMARK  110  A    between atoms: _285  and  _288
REMARK  111  A    between atoms: _288  and  _289
REMARK  112  A    between atoms: _289  and  _290
REMARK  113  A    between atoms: _293  and  _294
REMARK                            x       y       z     vdW  Elec       q    Type
REMARK                         _______ _______ _______ _____ _____    ______ ____
ROOT
ATOM      1  C   ARG A   1     -27.485   0.213 -15.422  0.00  0.00    +0.238 C 
ATOM      2  N   VAL A   2     -27.783   0.491 -14.156  0.00  0.00    -0.297 N 
ATOM      3  H   VAL A   2     -27.009   0.755 -13.514  0.00  0.00    +0.150 HD
ATOM      4  O   ARG A   1     -28.312  -0.134 -16.258  0.00  0.00    -0.274 OA
ENDROOT
BRANCH   1   5
ATOM      5  CA  ARG A   1     -26.021   0.336 -15.790  0.00  0.00    +0.145 C 
BRANCH   5   6
ATOM      6  N   ARG A   1     -25.351   1.287 -14.907  0.00  0.00    -0.238 NA
ATOM      7  H   ARG A   1     -24.782   0.920 -14.118  0.00  0.00    +0.142 HD
ENDBRANCH   5   6
BRANCH   5   8
ATOM      8  CB  ARG A   1     -25.357  -1.031 -15.680  0.00  0.00    +0.030 C 
BRANCH   8   9
ATOM      9  CG  ARG A   1     -23.901  -1.007 -16.088  0.00  0.00    +0.045 C 
BRANCH   9  10
ATOM     10  CD  ARG A   1     -23.791  -0.925 -17.599  0.00  0.00    +0.174 C 
BRANCH  10  11
ATOM     11  NE  ARG A   1     -22.684  -0.090 -18.040  0.00  0.00    -0.265 N 
ATOM     12  HE  ARG A   1     -22.123   0.403 -17.316  0.00  0.00    +0.259 HD
ATOM     13  CZ  ARG A   1     -22.349   0.079 -19.316  0.00  0.00    +0.342 C 
ATOM     14  NH2 ARG A   1     -21.322   0.865 -19.629  0.00  0.00    -0.292 N 
ATOM     15 HH21 ARG A   1     -20.786   1.344 -18.878  0.00  0.00    +0.255 HD
ATOM     16 HH22 ARG A   1     -21.056   1.001 -20.625  0.00  0.00    +0.255 HD
ATOM     17  NH1 ARG A   1     -23.040  -0.536 -20.276  0.00  0.00    -0.292 N 
ATOM     18 HH11 ARG A   1     -23.843  -1.149 -20.028  0.00  0.00    +0.255 HD
ATOM     19 HH12 ARG A   1     -22.777  -0.403 -21.273  0.00  0.00    +0.255 HD
ENDBRANCH  10  11
ENDBRANCH   9  10
ENDBRANCH   8   9
ENDBRANCH   5   8
ENDBRANCH   1   5
BRANCH   2  20
ATOM     20  CA  VAL A   2     -29.133   0.445 -13.624  0.00  0.00    +0.148 C 
BRANCH  20  21
ATOM     21  C   VAL A   2     -29.851   1.750 -13.918  0.00  0.00    +0.241 C 
ATOM     22  N   LEU A   3     -29.162   2.868 -13.711  0.00  0.00    -0.298 N 
ATOM     23  H   LEU A   3     -28.224   2.816 -13.266  0.00  0.00    +0.150 HD
ATOM     24  O   VAL A   2     -31.009   1.750 -14.310  0.00  0.00    -0.273 OA
BRANCH  22  25
ATOM     25  CA  LEU A   3     -29.702   4.167 -14.099  0.00  0.00    +0.137 C 
BRANCH  25  26
ATOM     26  C   LEU A   3     -30.106   4.131 -15.559  0.00  0.00    +0.227 C 
ATOM     27  O   LEU A   3     -29.380   3.570 -16.381  0.00  0.00    -0.286 OA
ENDBRANCH  25  26
BRANCH  25  28
ATOM     28  CB  LEU A   3     -28.668   5.278 -13.934  0.00  0.00    +0.028 C 
BRANCH  28  29
ATOM     29  CG  LEU A   3     -28.296   5.752 -12.539  0.00  0.00    +0.002 C 
ATOM     30  CD2 LEU A   3     -29.503   6.302 -11.814  0.00  0.00    +0.000 C 
ATOM     31  CD1 LEU A   3     -27.205   6.806 -12.656  0.00  0.00    +0.000 C 
ENDBRANCH  28  29
ENDBRANCH  25  28
ENDBRANCH  22  25
ENDBRANCH  20  21
BRANCH  20  32
ATOM     32  CB  VAL A   2     -29.101   0.225 -12.101  0.00  0.00    +0.027 C 
ATOM     33  CG2 VAL A   2     -30.506   0.294 -11.519  0.00  0.00    +0.002 C 
ATOM     34  CG1 VAL A   2     -28.406  -1.100 -11.767  0.00  0.00    +0.002 C 
ENDBRANCH  20  32
ENDBRANCH   2  20
TORSDOF 13
REMARK  Name = ../refined-set-2016/4ovh/4ovh_pocket.pdb
REMARK  113 active torsions:
REMARK  status: ('A' for Active; 'I' for Inactive)
REMARK    1  A    between atoms: _1  and  _3
REMARK    2  A    between atoms: _3  and  _4
REMARK    3  A    between atoms: _3  and  _6
REMARK    4  A    between atoms: _6  and  _7
REMARK    5  A    between atoms: _9  and  _11
REMARK    6  A    between atoms: _11  and  _12
REMARK    7  A    between atoms: _11  and  _14
REMARK    8  A    between atoms: _14  and  _15
REMARK    9  A    between atoms: _18  and  _20
REMARK   10  A    between atoms: _20  and  _21
REMARK   11  A    between atoms: _20  and  _23
REMARK   12  A    between atoms: _23  and  _24
REMARK   13  A    between atoms: _24  and  _25
REMARK   14  A    between atoms: _25  and  _26
REMARK   15  A    between atoms: _35  and  _37
REMARK   16  A    between atoms: _37  and  _38
REMARK   17  A    between atoms: _37  and  _40
REMARK   18  A    between atoms: _40  and  _41
REMARK   19  A    between atoms: _46  and  _47
REMARK   20  A    between atoms: _49  and  _51
REMARK   21  A    between atoms: _51  and  _52
REMARK   22  A    between atoms: _51  and  _54
REMARK   23  A    between atoms: _54  and  _55
REMARK   24  A    between atoms: _58  and  _60
REMARK   25  A    between atoms: _60  and  _61
REMARK   26  A    between atoms: _64  and  _66
REMARK   27  A    between atoms: _66  and  _67
REMARK   28  A    between atoms: _66  and  _69
REMARK   29  A    between atoms: _69  and  _70
REMARK   30  A    between atoms: _73  and  _75
REMARK   31  A    between atoms: _75  and  _76
REMARK   32  A    between atoms: _75  and  _78
REMARK   33  A    between atoms: _78  and  _79
REMARK   34  A    between atoms: _82  and  _84
REMARK   35  A    between atoms: _84  and  _85
REMARK   36  A    between atoms: _87  and  _89
REMARK   37  A    between atoms: _89  and  _90
REMARK   38  A    between atoms: _89  and  _92
REMARK   39  A    between atoms: _92  and  _93
REMARK   40  A    between atoms: _98  and  _100
REMARK   41  A    between atoms: _100  and  _101
REMARK   42  A    between atoms: _100  and  _103
REMARK   43  A    between atoms: _103  and  _104
REMARK   44  A    between atoms: _104  and  _105
REMARK   45  A    between atoms: _105  and  _106
REMARK   46  A    between atoms: _115  and  _117
REMARK   47  A    between atoms: _117  and  _118
REMARK   48  A    between atoms: _117  and  _120
REMARK   49  A    between atoms: _120  and  _121
REMARK   50  A    between atoms: _124  and  _126
REMARK   51  A    between atoms: _126  and  _127
REMARK   52  A    between atoms: _130  and  _132
REMARK   53  A    between atoms: _132  and  _133
REMARK   54  A    between atoms: _132  and  _135
REMARK   55  A    between atoms: _135  and  _136
REMARK   56  A    between atoms: _136  and  _137
REMARK   57  A    between atoms: _137  and  _138
REMARK   58  A    between atoms: _147  and  _149
REMARK   59  A    between atoms: _149  and  _150
REMARK   60  A    between atoms: _149  and  _152
REMARK   61  A    between atoms: _152  and  _153
REMARK   62  A    between atoms: _160  and  _161
REMARK   63  A    between atoms: _166  and  _168
REMARK   64  A    between atoms: _168  and  _169
REMARK   65  A    between atoms: _168  and  _171
REMARK   66  A    between atoms: _171  and  _172
REMARK   67  A    between atoms: _175  and  _177
REMARK   68  A    between atoms: _177  and  _178
REMARK   69  A    between atoms: _177  and  _180
REMARK   70  A    between atoms: _180  and  _181
REMARK   71  A    between atoms: _186  and  _187
REMARK   72  A    between atoms: _189  and  _191
REMARK   73  A    between atoms: _191  and  _192
REMARK   74  A    between atoms: _191  and  _194
REMARK   75  A    between atoms: _194  and  _195
REMARK   76  A    between atoms: _195  and  _196
REMARK   77  A    between atoms: _196  and  _197
REMARK   78  A    between atoms: _206  and  _208
REMARK   79  A    between atoms: _208  and  _209
REMARK   80  A    between atoms: _208  and  _211
REMARK   81  A    between atoms: _214  and  _216
REMARK   82  A    between atoms: _216  and  _217
REMARK   83  A    between atoms: _216  and  _219
REMARK   84  A    between atoms: _219  and  _220
REMARK   85  A    between atoms: _223  and  _225
REMARK   86  A    between atoms: _225  and  _226
REMARK   87  A    between atoms: _225  and  _228
REMARK   88  A    between atoms: _228  and  _229
REMARK   89  A    between atoms: _234  and  _235
REMARK   90  A    between atoms: _237  and  _239
REMARK   91  A    between atoms: _239  and  _240
REMARK   92  A    between atoms: _239  and  _242
REMARK   93  A    between atoms: _242  and  _243
REMARK   94  A    between atoms: _245  and  _247
REMARK   95  A    between atoms: _247  and  _248
REMARK   96  A    between atoms: _247  and  _250
REMARK   97  A    between atoms: _253  and  _255
REMARK   98  A    between atoms: _255  and  _256
REMARK   99  A    between atoms: _255  and  _258
REMARK  100  A    between atoms: _258  and  _259
REMARK  101  A    between atoms: _264  and  _265
REMARK  102  A    between atoms: _267  and  _269
REMARK  103  A    between atoms: _269  and  _270
REMARK  104  A    between atoms: _269  and  _272
REMARK  105  A    between atoms: _275  and  _277
REMARK  106  A    between atoms: _277  and  _278
REMARK  107  A    between atoms: _277  and  _280
REMARK  108  A    between atoms: _283  and  _285
REMARK  109  A    between atoms: _285  and  _286
REMARK  110  A    between atoms: _285  and  _288
REMARK  111  A    between atoms: _288  and  _289
REMARK  112  A    between atoms: _289  and  _290
REMARK  113  A    between atoms: _293  and  _294
REMARK                            x       y       z     vdW  Elec       q    Type
REMARK                         _______ _______ _______ _____ _____    ______ ____
ROOT
ATOM      1  CG  TYR A   1     -40.254  -1.658  -4.870  0.00  0.00    -0.020 A 
ATOM      2  CD2 TYR A   1     -39.853  -2.186  -3.641  0.00  0.00    -0.001 A 
ATOM      3  CE2 TYR A   1     -39.561  -3.526  -3.496  0.00  0.00    +0.036 A 
ATOM      4  CZ  TYR A   1     -39.649  -4.354  -4.587  0.00  0.00    +0.134 A 
ATOM      5  CE1 TYR A   1     -40.035  -3.860  -5.828  0.00  0.00    +0.036 A 
ATOM      6  CD1 TYR A   1     -40.330  -2.517  -5.962  0.00  0.00    -0.001 A 
ENDROOT
BRANCH   4   7
ATOM      7  OH  TYR A   1     -39.346  -5.679  -4.417  0.00  0.00    -0.506 OA
ATOM      8  HH  TYR A   1     -38.589  -5.922  -5.007  0.00  0.00    +0.292 HD
ENDBRANCH   4   7
BRANCH   1   9
ATOM      9  CB  TYR A   1     -40.571  -0.187  -5.021  0.00  0.00    +0.051 C 
BRANCH   9  10
ATOM     10  CA  TYR A   1     -40.994   0.507  -3.728  0.00  0.00    +0.137 C 
BRANCH  10  11
ATOM     11  N   TYR A   1     -42.269  -0.016  -3.243  0.00  0.00    -0.239 NA
ATOM     12  H   TYR A   1     -42.788  -0.706  -3.823  0.00  0.00    +0.142 HD
ENDBRANCH  10  11
BRANCH  10  13
ATOM     13  C   TYR A   1     -41.060   2.010  -3.962  0.00  0.00    +0.224 C 
ATOM     14  O   TYR A   1     -40.148   2.742  -3.569  0.00  0.00    -0.287 OA
ENDBRANCH  10  13
ENDBRANCH   9  10
ENDBRANCH   1   9
TORSDOF 5
REMARK  Name = ../refined-set-2016/4ovh/4ovh_pocket.pdb
REMARK  113 active torsions:
REMARK  status: ('A' for Active; 'I' for Inactive)
REMARK    1  A    between atoms: _1  and  _3
REMARK    2  A    between atoms: _3  and  _4
REMARK    3  A    between atoms: _3  and  _6
REMARK    4  A    between atoms: _6  and  _7
REMARK    5  A    between atoms: _9  and  _11
REMARK    6  A    between atoms: _11  and  _12
REMARK    7  A    between atoms: _11  and  _14
REMARK    8  A    between atoms: _14  and  _15
REMARK    9  A    between atoms: _18  and  _20
REMARK   10  A    between atoms: _20  and  _21
REMARK   11  A    between atoms: _20  and  _23
REMARK   12  A    between atoms: _23  and  _24
REMARK   13  A    between atoms: _24  and  _25
REMARK   14  A    between atoms: _25  and  _26
REMARK   15  A    between atoms: _35  and  _37
REMARK   16  A    between atoms: _37  and  _38
REMARK   17  A    between atoms: _37  and  _40
REMARK   18  A    between atoms: _40  and  _41
REMARK   19  A    between atoms: _46  and  _47
REMARK   20  A    between atoms: _49  and  _51
REMARK   21  A    between atoms: _51  and  _52
REMARK   22  A    between atoms: _51  and  _54
REMARK   23  A    between atoms: _54  and  _55
REMARK   24  A    between atoms: _58  and  _60
REMARK   25  A    between atoms: _60  and  _61
REMARK   26  A    between atoms: _64  and  _66
REMARK   27  A    between atoms: _66  and  _67
REMARK   28  A    between atoms: _66  and  _69
REMARK   29  A    between atoms: _69  and  _70
REMARK   30  A    between atoms: _73  and  _75
REMARK   31  A    between atoms: _75  and  _76
REMARK   32  A    between atoms: _75  and  _78
REMARK   33  A    between atoms: _78  and  _79
REMARK   34  A    between atoms: _82  and  _84
REMARK   35  A    between atoms: _84  and  _85
REMARK   36  A    between atoms: _87  and  _89
REMARK   37  A    between atoms: _89  and  _90
REMARK   38  A    between atoms: _89  and  _92
REMARK   39  A    between atoms: _92  and  _93
REMARK   40  A    between atoms: _98  and  _100
REMARK   41  A    between atoms: _100  and  _101
REMARK   42  A    between atoms: _100  and  _103
REMARK   43  A    between atoms: _103  and  _104
REMARK   44  A    between atoms: _104  and  _105
REMARK   45  A    between atoms: _105  and  _106
REMARK   46  A    between atoms: _115  and  _117
REMARK   47  A    between atoms: _117  and  _118
REMARK   48  A    between atoms: _117  and  _120
REMARK   49  A    between atoms: _120  and  _121
REMARK   50  A    between atoms: _124  and  _126
REMARK   51  A    between atoms: _126  and  _127
REMARK   52  A    between atoms: _130  and  _132
REMARK   53  A    between atoms: _132  and  _133
REMARK   54  A    between atoms: _132  and  _135
REMARK   55  A    between atoms: _135  and  _136
REMARK   56  A    between atoms: _136  and  _137
REMARK   57  A    between atoms: _137  and  _138
REMARK   58  A    between atoms: _147  and  _149
REMARK   59  A    between atoms: _149  and  _150
REMARK   60  A    between atoms: _149  and  _152
REMARK   61  A    between atoms: _152  and  _153
REMARK   62  A    between atoms: _160  and  _161
REMARK   63  A    between atoms: _166  and  _168
REMARK   64  A    between atoms: _168  and  _169
REMARK   65  A    between atoms: _168  and  _171
REMARK   66  A    between atoms: _171  and  _172
REMARK   67  A    between atoms: _175  and  _177
REMARK   68  A    between atoms: _177  and  _178
REMARK   69  A    between atoms: _177  and  _180
REMARK   70  A    between atoms: _180  and  _181
REMARK   71  A    between atoms: _186  and  _187
REMARK   72  A    between atoms: _189  and  _191
REMARK   73  A    between atoms: _191  and  _192
REMARK   74  A    between atoms: _191  and  _194
REMARK   75  A    between atoms: _194  and  _195
REMARK   76  A    between atoms: _195  and  _196
REMARK   77  A    between atoms: _196  and  _197
REMARK   78  A    between atoms: _206  and  _208
REMARK   79  A    between atoms: _208  and  _209
REMARK   80  A    between atoms: _208  and  _211
REMARK   81  A    between atoms: _214  and  _216
REMARK   82  A    between atoms: _216  and  _217
REMARK   83  A    between atoms: _216  and  _219
REMARK   84  A    between atoms: _219  and  _220
REMARK   85  A    between atoms: _223  and  _225
REMARK   86  A    between atoms: _225  and  _226
REMARK   87  A    between atoms: _225  and  _228
REMARK   88  A    between atoms: _228  and  _229
REMARK   89  A    between atoms: _234  and  _235
REMARK   90  A    between atoms: _237  and  _239
REMARK   91  A    between atoms: _239  and  _240
REMARK   92  A    between atoms: _239  and  _242
REMARK   93  A    between atoms: _242  and  _243
REMARK   94  A    between atoms: _245  and  _247
REMARK   95  A    between atoms: _247  and  _248
REMARK   96  A    between atoms: _247  and  _250
REMARK   97  A    between atoms: _253  and  _255
REMARK   98  A    between atoms: _255  and  _256
REMARK   99  A    between atoms: _255  and  _258
REMARK  100  A    between atoms: _258  and  _259
REMARK  101  A    between atoms: _264  and  _265
REMARK  102  A    between atoms: _267  and  _269
REMARK  103  A    between atoms: _269  and  _270
REMARK  104  A    between atoms: _269  and  _272
REMARK  105  A    between atoms: _275  and  _277
REMARK  106  A    between atoms: _277  and  _278
REMARK  107  A    between atoms: _277  and  _280
REMARK  108  A    between atoms: _283  and  _285
REMARK  109  A    between atoms: _285  and  _286
REMARK  110  A    between atoms: _285  and  _288
REMARK  111  A    between atoms: _288  and  _289
REMARK  112  A    between atoms: _289  and  _290
REMARK  113  A    between atoms: _293  and  _294
REMARK                            x       y       z     vdW  Elec       q    Type
REMARK                         _______ _______ _______ _____ _____    ______ ____
ROOT
ATOM      1  C   SER A   1     -37.149   2.923 -15.188  0.00  0.00    +0.241 C 
ATOM      2  N   VAL A   2     -37.521   3.382 -14.001  0.00  0.00    -0.298 N 
ATOM      3  H   VAL A   2     -37.599   2.718 -13.205  0.00  0.00    +0.150 HD
ATOM      4  O   SER A   1     -37.117   3.627 -16.200  0.00  0.00    -0.274 OA
ENDROOT
BRANCH   1   5
ATOM      5  CA  SER A   1     -36.769   1.445 -15.240  0.00  0.00    +0.174 C 
BRANCH   5   6
ATOM      6  N   SER A   1     -36.879   0.934 -16.602  0.00  0.00    -0.236 NA
ATOM      7  H   SER A   1     -36.046   0.511 -17.060  0.00  0.00    +0.142 HD
ENDBRANCH   5   6
BRANCH   5   8
ATOM      8  CB  SER A   1     -35.354   1.226 -14.672  0.00  0.00    +0.163 C 
BRANCH   8   9
ATOM      9  OG  SER A   1     -34.393   2.136 -15.205  0.00  0.00    -0.380 OA
ATOM     10  H   SER A   1     -34.344   2.025 -16.187  0.00  0.00    +0.211 HD
ENDBRANCH   8   9
ENDBRANCH   5   8
ENDBRANCH   1   5
BRANCH   2  11
ATOM     11  CA  VAL A   2     -37.824   4.793 -13.779  0.00  0.00    +0.137 C 
BRANCH  11  12
ATOM     12  CB  VAL A   2     -39.283   4.966 -13.348  0.00  0.00    +0.026 C 
ATOM     13  CG2 VAL A   2     -39.584   6.411 -12.972  0.00  0.00    +0.002 C 
ATOM     14  CG1 VAL A   2     -40.170   4.498 -14.492  0.00  0.00    +0.002 C 
ENDBRANCH  11  12
BRANCH  11  15
ATOM     15  C   VAL A   2     -36.889   5.356 -12.736  0.00  0.00    +0.227 C 
ATOM     16  O   VAL A   2     -36.540   4.679 -11.775  0.00  0.00    -0.286 OA
ENDBRANCH  11  15
ENDBRANCH   2  11
TORSDOF 7
REMARK  Name = ../refined-set-2016/4ovh/4ovh_pocket.pdb
REMARK  113 active torsions:
REMARK  status: ('A' for Active; 'I' for Inactive)
REMARK    1  A    between atoms: _1  and  _3
REMARK    2  A    between atoms: _3  and  _4
REMARK    3  A    between atoms: _3  and  _6
REMARK    4  A    between atoms: _6  and  _7
REMARK    5  A    between atoms: _9  and  _11
REMARK    6  A    between atoms: _11  and  _12
REMARK    7  A    between atoms: _11  and  _14
REMARK    8  A    between atoms: _14  and  _15
REMARK    9  A    between atoms: _18  and  _20
REMARK   10  A    between atoms: _20  and  _21
REMARK   11  A    between atoms: _20  and  _23
REMARK   12  A    between atoms: _23  and  _24
REMARK   13  A    between atoms: _24  and  _25
REMARK   14  A    between atoms: _25  and  _26
REMARK   15  A    between atoms: _35  and  _37
REMARK   16  A    between atoms: _37  and  _38
REMARK   17  A    between atoms: _37  and  _40
REMARK   18  A    between atoms: _40  and  _41
REMARK   19  A    between atoms: _46  and  _47
REMARK   20  A    between atoms: _49  and  _51
REMARK   21  A    between atoms: _51  and  _52
REMARK   22  A    between atoms: _51  and  _54
REMARK   23  A    between atoms: _54  and  _55
REMARK   24  A    between atoms: _58  and  _60
REMARK   25  A    between atoms: _60  and  _61
REMARK   26  A    between atoms: _64  and  _66
REMARK   27  A    between atoms: _66  and  _67
REMARK   28  A    between atoms: _66  and  _69
REMARK   29  A    between atoms: _69  and  _70
REMARK   30  A    between atoms: _73  and  _75
REMARK   31  A    between atoms: _75  and  _76
REMARK   32  A    between atoms: _75  and  _78
REMARK   33  A    between atoms: _78  and  _79
REMARK   34  A    between atoms: _82  and  _84
REMARK   35  A    between atoms: _84  and  _85
REMARK   36  A    between atoms: _87  and  _89
REMARK   37  A    between atoms: _89  and  _90
REMARK   38  A    between atoms: _89  and  _92
REMARK   39  A    between atoms: _92  and  _93
REMARK   40  A    between atoms: _98  and  _100
REMARK   41  A    between atoms: _100  and  _101
REMARK   42  A    between atoms: _100  and  _103
REMARK   43  A    between atoms: _103  and  _104
REMARK   44  A    between atoms: _104  and  _105
REMARK   45  A    between atoms: _105  and  _106
REMARK   46  A    between atoms: _115  and  _117
REMARK   47  A    between atoms: _117  and  _118
REMARK   48  A    between atoms: _117  and  _120
REMARK   49  A    between atoms: _120  and  _121
REMARK   50  A    between atoms: _124  and  _126
REMARK   51  A    between atoms: _126  and  _127
REMARK   52  A    between atoms: _130  and  _132
REMARK   53  A    between atoms: _132  and  _133
REMARK   54  A    between atoms: _132  and  _135
REMARK   55  A    between atoms: _135  and  _136
REMARK   56  A    between atoms: _136  and  _137
REMARK   57  A    between atoms: _137  and  _138
REMARK   58  A    between atoms: _147  and  _149
REMARK   59  A    between atoms: _149  and  _150
REMARK   60  A    between atoms: _149  and  _152
REMARK   61  A    between atoms: _152  and  _153
REMARK   62  A    between atoms: _160  and  _161
REMARK   63  A    between atoms: _166  and  _168
REMARK   64  A    between atoms: _168  and  _169
REMARK   65  A    between atoms: _168  and  _171
REMARK   66  A    between atoms: _171  and  _172
REMARK   67  A    between atoms: _175  and  _177
REMARK   68  A    between atoms: _177  and  _178
REMARK   69  A    between atoms: _177  and  _180
REMARK   70  A    between atoms: _180  and  _181
REMARK   71  A    between atoms: _186  and  _187
REMARK   72  A    between atoms: _189  and  _191
REMARK   73  A    between atoms: _191  and  _192
REMARK   74  A    between atoms: _191  and  _194
REMARK   75  A    between atoms: _194  and  _195
REMARK   76  A    between atoms: _195  and  _196
REMARK   77  A    between atoms: _196  and  _197
REMARK   78  A    between atoms: _206  and  _208
REMARK   79  A    between atoms: _208  and  _209
REMARK   80  A    between atoms: _208  and  _211
REMARK   81  A    between atoms: _214  and  _216
REMARK   82  A    between atoms: _216  and  _217
REMARK   83  A    between atoms: _216  and  _219
REMARK   84  A    between atoms: _219  and  _220
REMARK   85  A    between atoms: _223  and  _225
REMARK   86  A    between atoms: _225  and  _226
REMARK   87  A    between atoms: _225  and  _228
REMARK   88  A    between atoms: _228  and  _229
REMARK   89  A    between atoms: _234  and  _235
REMARK   90  A    between atoms: _237  and  _239
REMARK   91  A    between atoms: _239  and  _240
REMARK   92  A    between atoms: _239  and  _242
REMARK   93  A    between atoms: _242  and  _243
REMARK   94  A    between atoms: _245  and  _247
REMARK   95  A    between atoms: _247  and  _248
REMARK   96  A    between atoms: _247  and  _250
REMARK   97  A    between atoms: _253  and  _255
REMARK   98  A    between atoms: _255  and  _256
REMARK   99  A    between atoms: _255  and  _258
REMARK  100  A    between atoms: _258  and  _259
REMARK  101  A    between atoms: _264  and  _265
REMARK  102  A    between atoms: _267  and  _269
REMARK  103  A    between atoms: _269  and  _270
REMARK  104  A    between atoms: _269  and  _272
REMARK  105  A    between atoms: _275  and  _277
REMARK  106  A    between atoms: _277  and  _278
REMARK  107  A    between atoms: _277  and  _280
REMARK  108  A    between atoms: _283  and  _285
REMARK  109  A    between atoms: _285  and  _286
REMARK  110  A    between atoms: _285  and  _288
REMARK  111  A    between atoms: _288  and  _289
REMARK  112  A    between atoms: _289  and  _290
REMARK  113  A    between atoms: _293  and  _294
REMARK                            x       y       z     vdW  Elec       q    Type
REMARK                         _______ _______ _______ _____ _____    ______ ____
ROOT
ATOM      1  C   VAL A   2     -35.235   2.384  -9.311  0.00  0.00    +0.241 C 
ATOM      2  O   VAL A   2     -34.888   1.586  -8.433  0.00  0.00    -0.273 OA
ATOM      3  N   VAL A   3     -36.379   2.293  -9.993  0.00  0.00    -0.297 N 
ATOM      4  H   VAL A   3     -36.579   3.010 -10.720  0.00  0.00    +0.150 HD
ENDROOT
BRANCH   1   5
ATOM      5  CA  VAL A   2     -34.335   3.552  -9.693  0.00  0.00    +0.148 C 
BRANCH   5   7
ATOM      6  C   TYR A   1     -34.093   5.561  -8.324  0.00  0.00    +0.239 C 
ATOM      7  N   VAL A   2     -33.874   4.259  -8.503  0.00  0.00    -0.297 N 
ATOM      8  H   VAL A   2     -33.358   3.730  -7.771  0.00  0.00    +0.150 HD
ATOM      9  O   TYR A   1     -34.667   6.275  -9.141  0.00  0.00    -0.274 OA
BRANCH   6  10
ATOM     10  CA  TYR A   1     -33.582   6.164  -7.038  0.00  0.00    +0.149 C 
BRANCH  10  11
ATOM     11  N   TYR A   1     -32.944   7.421  -7.346  0.00  0.00    -0.238 NA
ATOM     12  H   TYR A   1     -33.482   8.138  -7.872  0.00  0.00    +0.142 HD
ENDBRANCH  10  11
BRANCH  10  13
ATOM     13  CB  TYR A   1     -34.733   6.424  -6.062  0.00  0.00    +0.053 C 
BRANCH  13  14
ATOM     14  CG  TYR A   1     -34.213   7.022  -4.776  0.00  0.00    -0.020 A 
ATOM     15  CD2 TYR A   1     -33.740   6.204  -3.758  0.00  0.00    -0.001 A 
ATOM     16  CE2 TYR A   1     -33.224   6.741  -2.593  0.00  0.00    +0.036 A 
ATOM     17  CZ  TYR A   1     -33.162   8.110  -2.427  0.00  0.00    +0.134 A 
ATOM     18  CE1 TYR A   1     -33.607   8.948  -3.435  0.00  0.00    +0.036 A 
ATOM     19  CD1 TYR A   1     -34.125   8.403  -4.605  0.00  0.00    -0.001 A 
BRANCH  17  20
ATOM     20  OH  TYR A   1     -32.635   8.633  -1.252  0.00  0.00    -0.506 OA
ATOM     21  HH  TYR A   1     -32.371   7.892  -0.651  0.00  0.00    +0.292 HD
ENDBRANCH  17  20
ENDBRANCH  13  14
ENDBRANCH  10  13
ENDBRANCH   6  10
ENDBRANCH   5   7
BRANCH   5  22
ATOM     22  CB  VAL A   2     -33.162   3.029 -10.544  0.00  0.00    +0.027 C 
ATOM     23  CG2 VAL A   2     -32.272   4.180 -10.951  0.00  0.00    +0.002 C 
ATOM     24  CG1 VAL A   2     -33.671   2.294 -11.786  0.00  0.00    +0.002 C 
ENDBRANCH   5  22
ENDBRANCH   1   5
BRANCH   3  25
ATOM     25  CA  VAL A   3     -37.366   1.237  -9.771  0.00  0.00    +0.149 C 
BRANCH  25  26
ATOM     26  C   VAL A   3     -37.785   0.596 -11.097  0.00  0.00    +0.241 C 
ATOM     27  N   MET A   4     -37.882  -0.729 -11.129  0.00  0.00    -0.297 N 
ATOM     28  H   MET A   4     -37.631  -1.275 -10.280  0.00  0.00    +0.150 HD
ATOM     29  O   VAL A   3     -38.027   1.293 -12.066  0.00  0.00    -0.273 OA
BRANCH  27  30
ATOM     30  CA  MET A   4     -38.334  -1.442 -12.329  0.00  0.00    +0.150 C 
BRANCH  30  31
ATOM     31  C   MET A   4     -39.846  -1.442 -12.441  0.00  0.00    +0.244 C 
ATOM     32  O   MET A   4     -40.527  -1.449 -11.432  0.00  0.00    -0.273 OA
ATOM     33  N   PRO A   5     -40.370  -1.443 -13.680  0.00  0.00    -0.273 N 
ATOM     34  CA  PRO A   5     -41.802  -1.586 -13.868  0.00  0.00    +0.140 C 
ATOM     35  CB  PRO A   5     -42.024  -1.188 -15.331  0.00  0.00    +0.030 C 
ATOM     36  CG  PRO A   5     -40.716  -1.405 -15.997  0.00  0.00    +0.024 C 
ATOM     37  CD  PRO A   5     -39.660  -1.204 -14.950  0.00  0.00    +0.094 C 
BRANCH  34  38
ATOM     38  C   PRO A   5     -42.261  -3.014 -13.620  0.00  0.00    +0.227 C 
ATOM     39  O   PRO A   5     -41.434  -3.926 -13.508  0.00  0.00    -0.286 OA
ENDBRANCH  34  38
ENDBRANCH  30  31
BRANCH  30  40
ATOM     40  CB  MET A   4     -37.855  -2.894 -12.326  0.00  0.00    +0.041 C 
BRANCH  40  41
ATOM     41  CG  MET A   4     -36.369  -3.035 -12.567  0.00  0.00    +0.060 C 
BRANCH  41  42
ATOM     42  SD  MET A   4     -35.827  -2.267 -14.116  0.00  0.00    -0.139 S 
ATOM     43  CE  MET A   4     -36.452  -3.434 -15.331  0.00  0.00    +0.069 C 
ENDBRANCH  41  42
ENDBRANCH  40  41
ENDBRANCH  30  40
ENDBRANCH  27  30
ENDBRANCH  25  26
BRANCH  25  44
ATOM     44  CB  VAL A   3     -38.627   1.802  -9.074  0.00  0.00    +0.027 C 
ATOM     45  CG2 VAL A   3     -38.237   2.730  -7.924  0.00  0.00    +0.002 C 
ATOM     46  CG1 VAL A   3     -39.508   0.666  -8.571  0.00  0.00    +0.002 C 
ENDBRANCH  25  44
ENDBRANCH   3  25
TORSDOF 17
REMARK  Name = ../refined-set-2016/4ovh/4ovh_pocket.pdb
REMARK  113 active torsions:
REMARK  status: ('A' for Active; 'I' for Inactive)
REMARK    1  A    between atoms: _1  and  _3
REMARK    2  A    between atoms: _3  and  _4
REMARK    3  A    between atoms: _3  and  _6
REMARK    4  A    between atoms: _6  and  _7
REMARK    5  A    between atoms: _9  and  _11
REMARK    6  A    between atoms: _11  and  _12
REMARK    7  A    between atoms: _11  and  _14
REMARK    8  A    between atoms: _14  and  _15
REMARK    9  A    between atoms: _18  and  _20
REMARK   10  A    between atoms: _20  and  _21
REMARK   11  A    between atoms: _20  and  _23
REMARK   12  A    between atoms: _23  and  _24
REMARK   13  A    between atoms: _24  and  _25
REMARK   14  A    between atoms: _25  and  _26
REMARK   15  A    between atoms: _35  and  _37
REMARK   16  A    between atoms: _37  and  _38
REMARK   17  A    between atoms: _37  and  _40
REMARK   18  A    between atoms: _40  and  _41
REMARK   19  A    between atoms: _46  and  _47
REMARK   20  A    between atoms: _49  and  _51
REMARK   21  A    between atoms: _51  and  _52
REMARK   22  A    between atoms: _51  and  _54
REMARK   23  A    between atoms: _54  and  _55
REMARK   24  A    between atoms: _58  and  _60
REMARK   25  A    between atoms: _60  and  _61
REMARK   26  A    between atoms: _64  and  _66
REMARK   27  A    between atoms: _66  and  _67
REMARK   28  A    between atoms: _66  and  _69
REMARK   29  A    between atoms: _69  and  _70
REMARK   30  A    between atoms: _73  and  _75
REMARK   31  A    between atoms: _75  and  _76
REMARK   32  A    between atoms: _75  and  _78
REMARK   33  A    between atoms: _78  and  _79
REMARK   34  A    between atoms: _82  and  _84
REMARK   35  A    between atoms: _84  and  _85
REMARK   36  A    between atoms: _87  and  _89
REMARK   37  A    between atoms: _89  and  _90
REMARK   38  A    between atoms: _89  and  _92
REMARK   39  A    between atoms: _92  and  _93
REMARK   40  A    between atoms: _98  and  _100
REMARK   41  A    between atoms: _100  and  _101
REMARK   42  A    between atoms: _100  and  _103
REMARK   43  A    between atoms: _103  and  _104
REMARK   44  A    between atoms: _104  and  _105
REMARK   45  A    between atoms: _105  and  _106
REMARK   46  A    between atoms: _115  and  _117
REMARK   47  A    between atoms: _117  and  _118
REMARK   48  A    between atoms: _117  and  _120
REMARK   49  A    between atoms: _120  and  _121
REMARK   50  A    between atoms: _124  and  _126
REMARK   51  A    between atoms: _126  and  _127
REMARK   52  A    between atoms: _130  and  _132
REMARK   53  A    between atoms: _132  and  _133
REMARK   54  A    between atoms: _132  and  _135
REMARK   55  A    between atoms: _135  and  _136
REMARK   56  A    between atoms: _136  and  _137
REMARK   57  A    between atoms: _137  and  _138
REMARK   58  A    between atoms: _147  and  _149
REMARK   59  A    between atoms: _149  and  _150
REMARK   60  A    between atoms: _149  and  _152
REMARK   61  A    between atoms: _152  and  _153
REMARK   62  A    between atoms: _160  and  _161
REMARK   63  A    between atoms: _166  and  _168
REMARK   64  A    between atoms: _168  and  _169
REMARK   65  A    between atoms: _168  and  _171
REMARK   66  A    between atoms: _171  and  _172
REMARK   67  A    between atoms: _175  and  _177
REMARK   68  A    between atoms: _177  and  _178
REMARK   69  A    between atoms: _177  and  _180
REMARK   70  A    between atoms: _180  and  _181
REMARK   71  A    between atoms: _186  and  _187
REMARK   72  A    between atoms: _189  and  _191
REMARK   73  A    between atoms: _191  and  _192
REMARK   74  A    between atoms: _191  and  _194
REMARK   75  A    between atoms: _194  and  _195
REMARK   76  A    between atoms: _195  and  _196
REMARK   77  A    between atoms: _196  and  _197
REMARK   78  A    between atoms: _206  and  _208
REMARK   79  A    between atoms: _208  and  _209
REMARK   80  A    between atoms: _208  and  _211
REMARK   81  A    between atoms: _214  and  _216
REMARK   82  A    between atoms: _216  and  _217
REMARK   83  A    between atoms: _216  and  _219
REMARK   84  A    between atoms: _219  and  _220
REMARK   85  A    between atoms: _223  and  _225
REMARK   86  A    between atoms: _225  and  _226
REMARK   87  A    between atoms: _225  and  _228
REMARK   88  A    between atoms: _228  and  _229
REMARK   89  A    between atoms: _234  and  _235
REMARK   90  A    between atoms: _237  and  _239
REMARK   91  A    between atoms: _239  and  _240
REMARK   92  A    between atoms: _239  and  _242
REMARK   93  A    between atoms: _242  and  _243
REMARK   94  A    between atoms: _245  and  _247
REMARK   95  A    between atoms: _247  and  _248
REMARK   96  A    between atoms: _247  and  _250
REMARK   97  A    between atoms: _253  and  _255
REMARK   98  A    between atoms: _255  and  _256
REMARK   99  A    between atoms: _255  and  _258
REMARK  100  A    between atoms: _258  and  _259
REMARK  101  A    between atoms: _264  and  _265
REMARK  102  A    between atoms: _267  and  _269
REMARK  103  A    between atoms: _269  and  _270
REMARK  104  A    between atoms: _269  and  _272
REMARK  105  A    between atoms: _275  and  _277
REMARK  106  A    between atoms: _277  and  _278
REMARK  107  A    between atoms: _277  and  _280
REMARK  108  A    between atoms: _283  and  _285
REMARK  109  A    between atoms: _285  and  _286
REMARK  110  A    between atoms: _285  and  _288
REMARK  111  A    between atoms: _288  and  _289
REMARK  112  A    between atoms: _289  and  _290
REMARK  113  A    between atoms: _293  and  _294
REMARK                            x       y       z     vdW  Elec       q    Type
REMARK                         _______ _______ _______ _____ _____    ______ ____
ROOT
ATOM      1  O   HOH     1     -34.830   2.684  -4.431  0.00  0.00    +0.000 OA
ENDROOT
TORSDOF 0
REMARK  Name = ../refined-set-2016/4ovh/4ovh_pocket.pdb
REMARK  113 active torsions:
REMARK  status: ('A' for Active; 'I' for Inactive)
REMARK    1  A    between atoms: _1  and  _3
REMARK    2  A    between atoms: _3  and  _4
REMARK    3  A    between atoms: _3  and  _6
REMARK    4  A    between atoms: _6  and  _7
REMARK    5  A    between atoms: _9  and  _11
REMARK    6  A    between atoms: _11  and  _12
REMARK    7  A    between atoms: _11  and  _14
REMARK    8  A    between atoms: _14  and  _15
REMARK    9  A    between atoms: _18  and  _20
REMARK   10  A    between atoms: _20  and  _21
REMARK   11  A    between atoms: _20  and  _23
REMARK   12  A    between atoms: _23  and  _24
REMARK   13  A    between atoms: _24  and  _25
REMARK   14  A    between atoms: _25  and  _26
REMARK   15  A    between atoms: _35  and  _37
REMARK   16  A    between atoms: _37  and  _38
REMARK   17  A    between atoms: _37  and  _40
REMARK   18  A    between atoms: _40  and  _41
REMARK   19  A    between atoms: _46  and  _47
REMARK   20  A    between atoms: _49  and  _51
REMARK   21  A    between atoms: _51  and  _52
REMARK   22  A    between atoms: _51  and  _54
REMARK   23  A    between atoms: _54  and  _55
REMARK   24  A    between atoms: _58  and  _60
REMARK   25  A    between atoms: _60  and  _61
REMARK   26  A    between atoms: _64  and  _66
REMARK   27  A    between atoms: _66  and  _67
REMARK   28  A    between atoms: _66  and  _69
REMARK   29  A    between atoms: _69  and  _70
REMARK   30  A    between atoms: _73  and  _75
REMARK   31  A    between atoms: _75  and  _76
REMARK   32  A    between atoms: _75  and  _78
REMARK   33  A    between atoms: _78  and  _79
REMARK   34  A    between atoms: _82  and  _84
REMARK   35  A    between atoms: _84  and  _85
REMARK   36  A    between atoms: _87  and  _89
REMARK   37  A    between atoms: _89  and  _90
REMARK   38  A    between atoms: _89  and  _92
REMARK   39  A    between atoms: _92  and  _93
REMARK   40  A    between atoms: _98  and  _100
REMARK   41  A    between atoms: _100  and  _101
REMARK   42  A    between atoms: _100  and  _103
REMARK   43  A    between atoms: _103  and  _104
REMARK   44  A    between atoms: _104  and  _105
REMARK   45  A    between atoms: _105  and  _106
REMARK   46  A    between atoms: _115  and  _117
REMARK   47  A    between atoms: _117  and  _118
REMARK   48  A    between atoms: _117  and  _120
REMARK   49  A    between atoms: _120  and  _121
REMARK   50  A    between atoms: _124  and  _126
REMARK   51  A    between atoms: _126  and  _127
REMARK   52  A    between atoms: _130  and  _132
REMARK   53  A    between atoms: _132  and  _133
REMARK   54  A    between atoms: _132  and  _135
REMARK   55  A    between atoms: _135  and  _136
REMARK   56  A    between atoms: _136  and  _137
REMARK   57  A    between atoms: _137  and  _138
REMARK   58  A    between atoms: _147  and  _149
REMARK   59  A    between atoms: _149  and  _150
REMARK   60  A    between atoms: _149  and  _152
REMARK   61  A    between atoms: _152  and  _153
REMARK   62  A    between atoms: _160  and  _161
REMARK   63  A    between atoms: _166  and  _168
REMARK   64  A    between atoms: _168  and  _169
REMARK   65  A    between atoms: _168  and  _171
REMARK   66  A    between atoms: _171  and  _172
REMARK   67  A    between atoms: _175  and  _177
REMARK   68  A    between atoms: _177  and  _178
REMARK   69  A    between atoms: _177  and  _180
REMARK   70  A    between atoms: _180  and  _181
REMARK   71  A    between atoms: _186  and  _187
REMARK   72  A    between atoms: _189  and  _191
REMARK   73  A    between atoms: _191  and  _192
REMARK   74  A    between atoms: _191  and  _194
REMARK   75  A    between atoms: _194  and  _195
REMARK   76  A    between atoms: _195  and  _196
REMARK   77  A    between atoms: _196  and  _197
REMARK   78  A    between atoms: _206  and  _208
REMARK   79  A    between atoms: _208  and  _209
REMARK   80  A    between atoms: _208  and  _211
REMARK   81  A    between atoms: _214  and  _216
REMARK   82  A    between atoms: _216  and  _217
REMARK   83  A    between atoms: _216  and  _219
REMARK   84  A    between atoms: _219  and  _220
REMARK   85  A    between atoms: _223  and  _225
REMARK   86  A    between atoms: _225  and  _226
REMARK   87  A    between atoms: _225  and  _228
REMARK   88  A    between atoms: _228  and  _229
REMARK   89  A    between atoms: _234  and  _235
REMARK   90  A    between atoms: _237  and  _239
REMARK   91  A    between atoms: _239  and  _240
REMARK   92  A    between atoms: _239  and  _242
REMARK   93  A    between atoms: _242  and  _243
REMARK   94  A    between atoms: _245  and  _247
REMARK   95  A    between atoms: _247  and  _248
REMARK   96  A    between atoms: _247  and  _250
REMARK   97  A    between atoms: _253  and  _255
REMARK   98  A    between atoms: _255  and  _256
REMARK   99  A    between atoms: _255  and  _258
REMARK  100  A    between atoms: _258  and  _259
REMARK  101  A    between atoms: _264  and  _265
REMARK  102  A    between atoms: _267  and  _269
REMARK  103  A    between atoms: _269  and  _270
REMARK  104  A    between atoms: _269  and  _272
REMARK  105  A    between atoms: _275  and  _277
REMARK  106  A    between atoms: _277  and  _278
REMARK  107  A    between atoms: _277  and  _280
REMARK  108  A    between atoms: _283  and  _285
REMARK  109  A    between atoms: _285  and  _286
REMARK  110  A    between atoms: _285  and  _288
REMARK  111  A    between atoms: _288  and  _289
REMARK  112  A    between atoms: _289  and  _290
REMARK  113  A    between atoms: _293  and  _294
REMARK                            x       y       z     vdW  Elec       q    Type
REMARK                         _______ _______ _______ _____ _____    ______ ____
ROOT
ATOM      1  O   HOH     1     -33.192  -9.024  -2.762  0.00  0.00    +0.000 OA
ENDROOT
TORSDOF 0
REMARK  Name = ../refined-set-2016/4ovh/4ovh_pocket.pdb
REMARK  113 active torsions:
REMARK  status: ('A' for Active; 'I' for Inactive)
REMARK    1  A    between atoms: _1  and  _3
REMARK    2  A    between atoms: _3  and  _4
REMARK    3  A    between atoms: _3  and  _6
REMARK    4  A    between atoms: _6  and  _7
REMARK    5  A    between atoms: _9  and  _11
REMARK    6  A    between atoms: _11  and  _12
REMARK    7  A    between atoms: _11  and  _14
REMARK    8  A    between atoms: _14  and  _15
REMARK    9  A    between atoms: _18  and  _20
REMARK   10  A    between atoms: _20  and  _21
REMARK   11  A    between atoms: _20  and  _23
REMARK   12  A    between atoms: _23  and  _24
REMARK   13  A    between atoms: _24  and  _25
REMARK   14  A    between atoms: _25  and  _26
REMARK   15  A    between atoms: _35  and  _37
REMARK   16  A    between atoms: _37  and  _38
REMARK   17  A    between atoms: _37  and  _40
REMARK   18  A    between atoms: _40  and  _41
REMARK   19  A    between atoms: _46  and  _47
REMARK   20  A    between atoms: _49  and  _51
REMARK   21  A    between atoms: _51  and  _52
REMARK   22  A    between atoms: _51  and  _54
REMARK   23  A    between atoms: _54  and  _55
REMARK   24  A    between atoms: _58  and  _60
REMARK   25  A    between atoms: _60  and  _61
REMARK   26  A    between atoms: _64  and  _66
REMARK   27  A    between atoms: _66  and  _67
REMARK   28  A    between atoms: _66  and  _69
REMARK   29  A    between atoms: _69  and  _70
REMARK   30  A    between atoms: _73  and  _75
REMARK   31  A    between atoms: _75  and  _76
REMARK   32  A    between atoms: _75  and  _78
REMARK   33  A    between atoms: _78  and  _79
REMARK   34  A    between atoms: _82  and  _84
REMARK   35  A    between atoms: _84  and  _85
REMARK   36  A    between atoms: _87  and  _89
REMARK   37  A    between atoms: _89  and  _90
REMARK   38  A    between atoms: _89  and  _92
REMARK   39  A    between atoms: _92  and  _93
REMARK   40  A    between atoms: _98  and  _100
REMARK   41  A    between atoms: _100  and  _101
REMARK   42  A    between atoms: _100  and  _103
REMARK   43  A    between atoms: _103  and  _104
REMARK   44  A    between atoms: _104  and  _105
REMARK   45  A    between atoms: _105  and  _106
REMARK   46  A    between atoms: _115  and  _117
REMARK   47  A    between atoms: _117  and  _118
REMARK   48  A    between atoms: _117  and  _120
REMARK   49  A    between atoms: _120  and  _121
REMARK   50  A    between atoms: _124  and  _126
REMARK   51  A    between atoms: _126  and  _127
REMARK   52  A    between atoms: _130  and  _132
REMARK   53  A    between atoms: _132  and  _133
REMARK   54  A    between atoms: _132  and  _135
REMARK   55  A    between atoms: _135  and  _136
REMARK   56  A    between atoms: _136  and  _137
REMARK   57  A    between atoms: _137  and  _138
REMARK   58  A    between atoms: _147  and  _149
REMARK   59  A    between atoms: _149  and  _150
REMARK   60  A    between atoms: _149  and  _152
REMARK   61  A    between atoms: _152  and  _153
REMARK   62  A    between atoms: _160  and  _161
REMARK   63  A    between atoms: _166  and  _168
REMARK   64  A    between atoms: _168  and  _169
REMARK   65  A    between atoms: _168  and  _171
REMARK   66  A    between atoms: _171  and  _172
REMARK   67  A    between atoms: _175  and  _177
REMARK   68  A    between atoms: _177  and  _178
REMARK   69  A    between atoms: _177  and  _180
REMARK   70  A    between atoms: _180  and  _181
REMARK   71  A    between atoms: _186  and  _187
REMARK   72  A    between atoms: _189  and  _191
REMARK   73  A    between atoms: _191  and  _192
REMARK   74  A    between atoms: _191  and  _194
REMARK   75  A    between atoms: _194  and  _195
REMARK   76  A    between atoms: _195  and  _196
REMARK   77  A    between atoms: _196  and  _197
REMARK   78  A    between atoms: _206  and  _208
REMARK   79  A    between atoms: _208  and  _209
REMARK   80  A    between atoms: _208  and  _211
REMARK   81  A    between atoms: _214  and  _216
REMARK   82  A    between atoms: _216  and  _217
REMARK   83  A    between atoms: _216  and  _219
REMARK   84  A    between atoms: _219  and  _220
REMARK   85  A    between atoms: _223  and  _225
REMARK   86  A    between atoms: _225  and  _226
REMARK   87  A    between atoms: _225  and  _228
REMARK   88  A    between atoms: _228  and  _229
REMARK   89  A    between atoms: _234  and  _235
REMARK   90  A    between atoms: _237  and  _239
REMARK   91  A    between atoms: _239  and  _240
REMARK   92  A    between atoms: _239  and  _242
REMARK   93  A    between atoms: _242  and  _243
REMARK   94  A    between atoms: _245  and  _247
REMARK   95  A    between atoms: _247  and  _248
REMARK   96  A    between atoms: _247  and  _250
REMARK   97  A    between atoms: _253  and  _255
REMARK   98  A    between atoms: _255  and  _256
REMARK   99  A    between atoms: _255  and  _258
REMARK  100  A    between atoms: _258  and  _259
REMARK  101  A    between atoms: _264  and  _265
REMARK  102  A    between atoms: _267  and  _269
REMARK  103  A    between atoms: _269  and  _270
REMARK  104  A    between atoms: _269  and  _272
REMARK  105  A    between atoms: _275  and  _277
REMARK  106  A    between atoms: _277  and  _278
REMARK  107  A    between atoms: _277  and  _280
REMARK  108  A    between atoms: _283  and  _285
REMARK  109  A    between atoms: _285  and  _286
REMARK  110  A    between atoms: _285  and  _288
REMARK  111  A    between atoms: _288  and  _289
REMARK  112  A    between atoms: _289  and  _290
REMARK  113  A    between atoms: _293  and  _294
REMARK                            x       y       z     vdW  Elec       q    Type
REMARK                         _______ _______ _______ _____ _____    ______ ____
ROOT
ATOM      1  O   HOH     1     -27.367  -3.441  -1.822  0.00  0.00    +0.000 OA
ENDROOT
TORSDOF 0
REMARK  Name = ../refined-set-2016/4ovh/4ovh_pocket.pdb
REMARK  113 active torsions:
REMARK  status: ('A' for Active; 'I' for Inactive)
REMARK    1  A    between atoms: _1  and  _3
REMARK    2  A    between atoms: _3  and  _4
REMARK    3  A    between atoms: _3  and  _6
REMARK    4  A    between atoms: _6  and  _7
REMARK    5  A    between atoms: _9  and  _11
REMARK    6  A    between atoms: _11  and  _12
REMARK    7  A    between atoms: _11  and  _14
REMARK    8  A    between atoms: _14  and  _15
REMARK    9  A    between atoms: _18  and  _20
REMARK   10  A    between atoms: _20  and  _21
REMARK   11  A    between atoms: _20  and  _23
REMARK   12  A    between atoms: _23  and  _24
REMARK   13  A    between atoms: _24  and  _25
REMARK   14  A    between atoms: _25  and  _26
REMARK   15  A    between atoms: _35  and  _37
REMARK   16  A    between atoms: _37  and  _38
REMARK   17  A    between atoms: _37  and  _40
REMARK   18  A    between atoms: _40  and  _41
REMARK   19  A    between atoms: _46  and  _47
REMARK   20  A    between atoms: _49  and  _51
REMARK   21  A    between atoms: _51  and  _52
REMARK   22  A    between atoms: _51  and  _54
REMARK   23  A    between atoms: _54  and  _55
REMARK   24  A    between atoms: _58  and  _60
REMARK   25  A    between atoms: _60  and  _61
REMARK   26  A    between atoms: _64  and  _66
REMARK   27  A    between atoms: _66  and  _67
REMARK   28  A    between atoms: _66  and  _69
REMARK   29  A    between atoms: _69  and  _70
REMARK   30  A    between atoms: _73  and  _75
REMARK   31  A    between atoms: _75  and  _76
REMARK   32  A    between atoms: _75  and  _78
REMARK   33  A    between atoms: _78  and  _79
REMARK   34  A    between atoms: _82  and  _84
REMARK   35  A    between atoms: _84  and  _85
REMARK   36  A    between atoms: _87  and  _89
REMARK   37  A    between atoms: _89  and  _90
REMARK   38  A    between atoms: _89  and  _92
REMARK   39  A    between atoms: _92  and  _93
REMARK   40  A    between atoms: _98  and  _100
REMARK   41  A    between atoms: _100  and  _101
REMARK   42  A    between atoms: _100  and  _103
REMARK   43  A    between atoms: _103  and  _104
REMARK   44  A    between atoms: _104  and  _105
REMARK   45  A    between atoms: _105  and  _106
REMARK   46  A    between atoms: _115  and  _117
REMARK   47  A    between atoms: _117  and  _118
REMARK   48  A    between atoms: _117  and  _120
REMARK   49  A    between atoms: _120  and  _121
REMARK   50  A    between atoms: _124  and  _126
REMARK   51  A    between atoms: _126  and  _127
REMARK   52  A    between atoms: _130  and  _132
REMARK   53  A    between atoms: _132  and  _133
REMARK   54  A    between atoms: _132  and  _135
REMARK   55  A    between atoms: _135  and  _136
REMARK   56  A    between atoms: _136  and  _137
REMARK   57  A    between atoms: _137  and  _138
REMARK   58  A    between atoms: _147  and  _149
REMARK   59  A    between atoms: _149  and  _150
REMARK   60  A    between atoms: _149  and  _152
REMARK   61  A    between atoms: _152  and  _153
REMARK   62  A    between atoms: _160  and  _161
REMARK   63  A    between atoms: _166  and  _168
REMARK   64  A    between atoms: _168  and  _169
REMARK   65  A    between atoms: _168  and  _171
REMARK   66  A    between atoms: _171  and  _172
REMARK   67  A    between atoms: _175  and  _177
REMARK   68  A    between atoms: _177  and  _178
REMARK   69  A    between atoms: _177  and  _180
REMARK   70  A    between atoms: _180  and  _181
REMARK   71  A    between atoms: _186  and  _187
REMARK   72  A    between atoms: _189  and  _191
REMARK   73  A    between atoms: _191  and  _192
REMARK   74  A    between atoms: _191  and  _194
REMARK   75  A    between atoms: _194  and  _195
REMARK   76  A    between atoms: _195  and  _196
REMARK   77  A    between atoms: _196  and  _197
REMARK   78  A    between atoms: _206  and  _208
REMARK   79  A    between atoms: _208  and  _209
REMARK   80  A    between atoms: _208  and  _211
REMARK   81  A    between atoms: _214  and  _216
REMARK   82  A    between atoms: _216  and  _217
REMARK   83  A    between atoms: _216  and  _219
REMARK   84  A    between atoms: _219  and  _220
REMARK   85  A    between atoms: _223  and  _225
REMARK   86  A    between atoms: _225  and  _226
REMARK   87  A    between atoms: _225  and  _228
REMARK   88  A    between atoms: _228  and  _229
REMARK   89  A    between atoms: _234  and  _235
REMARK   90  A    between atoms: _237  and  _239
REMARK   91  A    between atoms: _239  and  _240
REMARK   92  A    between atoms: _239  and  _242
REMARK   93  A    between atoms: _242  and  _243
REMARK   94  A    between atoms: _245  and  _247
REMARK   95  A    between atoms: _247  and  _248
REMARK   96  A    between atoms: _247  and  _250
REMARK   97  A    between atoms: _253  and  _255
REMARK   98  A    between atoms: _255  and  _256
REMARK   99  A    between atoms: _255  and  _258
REMARK  100  A    between atoms: _258  and  _259
REMARK  101  A    between atoms: _264  and  _265
REMARK  102  A    between atoms: _267  and  _269
REMARK  103  A    between atoms: _269  and  _270
REMARK  104  A    between atoms: _269  and  _272
REMARK  105  A    between atoms: _275  and  _277
REMARK  106  A    between atoms: _277  and  _278
REMARK  107  A    between atoms: _277  and  _280
REMARK  108  A    between atoms: _283  and  _285
REMARK  109  A    between atoms: _285  and  _286
REMARK  110  A    between atoms: _285  and  _288
REMARK  111  A    between atoms: _288  and  _289
REMARK  112  A    between atoms: _289  and  _290
REMARK  113  A    between atoms: _293  and  _294
REMARK                            x       y       z     vdW  Elec       q    Type
REMARK                         _______ _______ _______ _____ _____    ______ ____
ROOT
ATOM      1  O   HOH     1     -31.403 -14.380  -5.405  0.00  0.00    +0.000 OA
ENDROOT
TORSDOF 0
REMARK  Name = ../refined-set-2016/4ovh/4ovh_pocket.pdb
REMARK  113 active torsions:
REMARK  status: ('A' for Active; 'I' for Inactive)
REMARK    1  A    between atoms: _1  and  _3
REMARK    2  A    between atoms: _3  and  _4
REMARK    3  A    between atoms: _3  and  _6
REMARK    4  A    between atoms: _6  and  _7
REMARK    5  A    between atoms: _9  and  _11
REMARK    6  A    between atoms: _11  and  _12
REMARK    7  A    between atoms: _11  and  _14
REMARK    8  A    between atoms: _14  and  _15
REMARK    9  A    between atoms: _18  and  _20
REMARK   10  A    between atoms: _20  and  _21
REMARK   11  A    between atoms: _20  and  _23
REMARK   12  A    between atoms: _23  and  _24
REMARK   13  A    between atoms: _24  and  _25
REMARK   14  A    between atoms: _25  and  _26
REMARK   15  A    between atoms: _35  and  _37
REMARK   16  A    between atoms: _37  and  _38
REMARK   17  A    between atoms: _37  and  _40
REMARK   18  A    between atoms: _40  and  _41
REMARK   19  A    between atoms: _46  and  _47
REMARK   20  A    between atoms: _49  and  _51
REMARK   21  A    between atoms: _51  and  _52
REMARK   22  A    between atoms: _51  and  _54
REMARK   23  A    between atoms: _54  and  _55
REMARK   24  A    between atoms: _58  and  _60
REMARK   25  A    between atoms: _60  and  _61
REMARK   26  A    between atoms: _64  and  _66
REMARK   27  A    between atoms: _66  and  _67
REMARK   28  A    between atoms: _66  and  _69
REMARK   29  A    between atoms: _69  and  _70
REMARK   30  A    between atoms: _73  and  _75
REMARK   31  A    between atoms: _75  and  _76
REMARK   32  A    between atoms: _75  and  _78
REMARK   33  A    between atoms: _78  and  _79
REMARK   34  A    between atoms: _82  and  _84
REMARK   35  A    between atoms: _84  and  _85
REMARK   36  A    between atoms: _87  and  _89
REMARK   37  A    between atoms: _89  and  _90
REMARK   38  A    between atoms: _89  and  _92
REMARK   39  A    between atoms: _92  and  _93
REMARK   40  A    between atoms: _98  and  _100
REMARK   41  A    between atoms: _100  and  _101
REMARK   42  A    between atoms: _100  and  _103
REMARK   43  A    between atoms: _103  and  _104
REMARK   44  A    between atoms: _104  and  _105
REMARK   45  A    between atoms: _105  and  _106
REMARK   46  A    between atoms: _115  and  _117
REMARK   47  A    between atoms: _117  and  _118
REMARK   48  A    between atoms: _117  and  _120
REMARK   49  A    between atoms: _120  and  _121
REMARK   50  A    between atoms: _124  and  _126
REMARK   51  A    between atoms: _126  and  _127
REMARK   52  A    between atoms: _130  and  _132
REMARK   53  A    between atoms: _132  and  _133
REMARK   54  A    between atoms: _132  and  _135
REMARK   55  A    between atoms: _135  and  _136
REMARK   56  A    between atoms: _136  and  _137
REMARK   57  A    between atoms: _137  and  _138
REMARK   58  A    between atoms: _147  and  _149
REMARK   59  A    between atoms: _149  and  _150
REMARK   60  A    between atoms: _149  and  _152
REMARK   61  A    between atoms: _152  and  _153
REMARK   62  A    between atoms: _160  and  _161
REMARK   63  A    between atoms: _166  and  _168
REMARK   64  A    between atoms: _168  and  _169
REMARK   65  A    between atoms: _168  and  _171
REMARK   66  A    between atoms: _171  and  _172
REMARK   67  A    between atoms: _175  and  _177
REMARK   68  A    between atoms: _177  and  _178
REMARK   69  A    between atoms: _177  and  _180
REMARK   70  A    between atoms: _180  and  _181
REMARK   71  A    between atoms: _186  and  _187
REMARK   72  A    between atoms: _189  and  _191
REMARK   73  A    between atoms: _191  and  _192
REMARK   74  A    between atoms: _191  and  _194
REMARK   75  A    between atoms: _194  and  _195
REMARK   76  A    between atoms: _195  and  _196
REMARK   77  A    between atoms: _196  and  _197
REMARK   78  A    between atoms: _206  and  _208
REMARK   79  A    between atoms: _208  and  _209
REMARK   80  A    between atoms: _208  and  _211
REMARK   81  A    between atoms: _214  and  _216
REMARK   82  A    between atoms: _216  and  _217
REMARK   83  A    between atoms: _216  and  _219
REMARK   84  A    between atoms: _219  and  _220
REMARK   85  A    between atoms: _223  and  _225
REMARK   86  A    between atoms: _225  and  _226
REMARK   87  A    between atoms: _225  and  _228
REMARK   88  A    between atoms: _228  and  _229
REMARK   89  A    between atoms: _234  and  _235
REMARK   90  A    between atoms: _237  and  _239
REMARK   91  A    between atoms: _239  and  _240
REMARK   92  A    between atoms: _239  and  _242
REMARK   93  A    between atoms: _242  and  _243
REMARK   94  A    between atoms: _245  and  _247
REMARK   95  A    between atoms: _247  and  _248
REMARK   96  A    between atoms: _247  and  _250
REMARK   97  A    between atoms: _253  and  _255
REMARK   98  A    between atoms: _255  and  _256
REMARK   99  A    between atoms: _255  and  _258
REMARK  100  A    between atoms: _258  and  _259
REMARK  101  A    between atoms: _264  and  _265
REMARK  102  A    between atoms: _267  and  _269
REMARK  103  A    between atoms: _269  and  _270
REMARK  104  A    between atoms: _269  and  _272
REMARK  105  A    between atoms: _275  and  _277
REMARK  106  A    between atoms: _277  and  _278
REMARK  107  A    between atoms: _277  and  _280
REMARK  108  A    between atoms: _283  and  _285
REMARK  109  A    between atoms: _285  and  _286
REMARK  110  A    between atoms: _285  and  _288
REMARK  111  A    between atoms: _288  and  _289
REMARK  112  A    between atoms: _289  and  _290
REMARK  113  A    between atoms: _293  and  _294
REMARK                            x       y       z     vdW  Elec       q    Type
REMARK                         _______ _______ _______ _____ _____    ______ ____
ROOT
ATOM      1  O   HOH     1     -24.211  -3.937 -13.087  0.00  0.00    +0.000 OA
ENDROOT
TORSDOF 0
REMARK  Name = ../refined-set-2016/4ovh/4ovh_pocket.pdb
REMARK  113 active torsions:
REMARK  status: ('A' for Active; 'I' for Inactive)
REMARK    1  A    between atoms: _1  and  _3
REMARK    2  A    between atoms: _3  and  _4
REMARK    3  A    between atoms: _3  and  _6
REMARK    4  A    between atoms: _6  and  _7
REMARK    5  A    between atoms: _9  and  _11
REMARK    6  A    between atoms: _11  and  _12
REMARK    7  A    between atoms: _11  and  _14
REMARK    8  A    between atoms: _14  and  _15
REMARK    9  A    between atoms: _18  and  _20
REMARK   10  A    between atoms: _20  and  _21
REMARK   11  A    between atoms: _20  and  _23
REMARK   12  A    between atoms: _23  and  _24
REMARK   13  A    between atoms: _24  and  _25
REMARK   14  A    between atoms: _25  and  _26
REMARK   15  A    between atoms: _35  and  _37
REMARK   16  A    between atoms: _37  and  _38
REMARK   17  A    between atoms: _37  and  _40
REMARK   18  A    between atoms: _40  and  _41
REMARK   19  A    between atoms: _46  and  _47
REMARK   20  A    between atoms: _49  and  _51
REMARK   21  A    between atoms: _51  and  _52
REMARK   22  A    between atoms: _51  and  _54
REMARK   23  A    between atoms: _54  and  _55
REMARK   24  A    between atoms: _58  and  _60
REMARK   25  A    between atoms: _60  and  _61
REMARK   26  A    between atoms: _64  and  _66
REMARK   27  A    between atoms: _66  and  _67
REMARK   28  A    between atoms: _66  and  _69
REMARK   29  A    between atoms: _69  and  _70
REMARK   30  A    between atoms: _73  and  _75
REMARK   31  A    between atoms: _75  and  _76
REMARK   32  A    between atoms: _75  and  _78
REMARK   33  A    between atoms: _78  and  _79
REMARK   34  A    between atoms: _82  and  _84
REMARK   35  A    between atoms: _84  and  _85
REMARK   36  A    between atoms: _87  and  _89
REMARK   37  A    between atoms: _89  and  _90
REMARK   38  A    between atoms: _89  and  _92
REMARK   39  A    between atoms: _92  and  _93
REMARK   40  A    between atoms: _98  and  _100
REMARK   41  A    between atoms: _100  and  _101
REMARK   42  A    between atoms: _100  and  _103
REMARK   43  A    between atoms: _103  and  _104
REMARK   44  A    between atoms: _104  and  _105
REMARK   45  A    between atoms: _105  and  _106
REMARK   46  A    between atoms: _115  and  _117
REMARK   47  A    between atoms: _117  and  _118
REMARK   48  A    between atoms: _117  and  _120
REMARK   49  A    between atoms: _120  and  _121
REMARK   50  A    between atoms: _124  and  _126
REMARK   51  A    between atoms: _126  and  _127
REMARK   52  A    between atoms: _130  and  _132
REMARK   53  A    between atoms: _132  and  _133
REMARK   54  A    between atoms: _132  and  _135
REMARK   55  A    between atoms: _135  and  _136
REMARK   56  A    between atoms: _136  and  _137
REMARK   57  A    between atoms: _137  and  _138
REMARK   58  A    between atoms: _147  and  _149
REMARK   59  A    between atoms: _149  and  _150
REMARK   60  A    between atoms: _149  and  _152
REMARK   61  A    between atoms: _152  and  _153
REMARK   62  A    between atoms: _160  and  _161
REMARK   63  A    between atoms: _166  and  _168
REMARK   64  A    between atoms: _168  and  _169
REMARK   65  A    between atoms: _168  and  _171
REMARK   66  A    between atoms: _171  and  _172
REMARK   67  A    between atoms: _175  and  _177
REMARK   68  A    between atoms: _177  and  _178
REMARK   69  A    between atoms: _177  and  _180
REMARK   70  A    between atoms: _180  and  _181
REMARK   71  A    between atoms: _186  and  _187
REMARK   72  A    between atoms: _189  and  _191
REMARK   73  A    between atoms: _191  and  _192
REMARK   74  A    between atoms: _191  and  _194
REMARK   75  A    between atoms: _194  and  _195
REMARK   76  A    between atoms: _195  and  _196
REMARK   77  A    between atoms: _196  and  _197
REMARK   78  A    between atoms: _206  and  _208
REMARK   79  A    between atoms: _208  and  _209
REMARK   80  A    between atoms: _208  and  _211
REMARK   81  A    between atoms: _214  and  _216
REMARK   82  A    between atoms: _216  and  _217
REMARK   83  A    between atoms: _216  and  _219
REMARK   84  A    between atoms: _219  and  _220
REMARK   85  A    between atoms: _223  and  _225
REMARK   86  A    between atoms: _225  and  _226
REMARK   87  A    between atoms: _225  and  _228
REMARK   88  A    between atoms: _228  and  _229
REMARK   89  A    between atoms: _234  and  _235
REMARK   90  A    between atoms: _237  and  _239
REMARK   91  A    between atoms: _239  and  _240
REMARK   92  A    between atoms: _239  and  _242
REMARK   93  A    between atoms: _242  and  _243
REMARK   94  A    between atoms: _245  and  _247
REMARK   95  A    between atoms: _247  and  _248
REMARK   96  A    between atoms: _247  and  _250
REMARK   97  A    between atoms: _253  and  _255
REMARK   98  A    between atoms: _255  and  _256
REMARK   99  A    between atoms: _255  and  _258
REMARK  100  A    between atoms: _258  and  _259
REMARK  101  A    between atoms: _264  and  _265
REMARK  102  A    between atoms: _267  and  _269
REMARK  103  A    between atoms: _269  and  _270
REMARK  104  A    between atoms: _269  and  _272
REMARK  105  A    between atoms: _275  and  _277
REMARK  106  A    between atoms: _277  and  _278
REMARK  107  A    between atoms: _277  and  _280
REMARK  108  A    between atoms: _283  and  _285
REMARK  109  A    between atoms: _285  and  _286
REMARK  110  A    between atoms: _285  and  _288
REMARK  111  A    between atoms: _288  and  _289
REMARK  112  A    between atoms: _289  and  _290
REMARK  113  A    between atoms: _293  and  _294
REMARK                            x       y       z     vdW  Elec       q    Type
REMARK                         _______ _______ _______ _____ _____    ______ ____
ROOT
ATOM      1  O   HOH     1     -39.141  -2.511  -9.243  0.00  0.00    +0.000 OA
ENDROOT
TORSDOF 0
REMARK  Name = ../refined-set-2016/4ovh/4ovh_pocket.pdb
REMARK  113 active torsions:
REMARK  status: ('A' for Active; 'I' for Inactive)
REMARK    1  A    between atoms: _1  and  _3
REMARK    2  A    between atoms: _3  and  _4
REMARK    3  A    between atoms: _3  and  _6
REMARK    4  A    between atoms: _6  and  _7
REMARK    5  A    between atoms: _9  and  _11
REMARK    6  A    between atoms: _11  and  _12
REMARK    7  A    between atoms: _11  and  _14
REMARK    8  A    between atoms: _14  and  _15
REMARK    9  A    between atoms: _18  and  _20
REMARK   10  A    between atoms: _20  and  _21
REMARK   11  A    between atoms: _20  and  _23
REMARK   12  A    between atoms: _23  and  _24
REMARK   13  A    between atoms: _24  and  _25
REMARK   14  A    between atoms: _25  and  _26
REMARK   15  A    between atoms: _35  and  _37
REMARK   16  A    between atoms: _37  and  _38
REMARK   17  A    between atoms: _37  and  _40
REMARK   18  A    between atoms: _40  and  _41
REMARK   19  A    between atoms: _46  and  _47
REMARK   20  A    between atoms: _49  and  _51
REMARK   21  A    between atoms: _51  and  _52
REMARK   22  A    between atoms: _51  and  _54
REMARK   23  A    between atoms: _54  and  _55
REMARK   24  A    between atoms: _58  and  _60
REMARK   25  A    between atoms: _60  and  _61
REMARK   26  A    between atoms: _64  and  _66
REMARK   27  A    between atoms: _66  and  _67
REMARK   28  A    between atoms: _66  and  _69
REMARK   29  A    between atoms: _69  and  _70
REMARK   30  A    between atoms: _73  and  _75
REMARK   31  A    between atoms: _75  and  _76
REMARK   32  A    between atoms: _75  and  _78
REMARK   33  A    between atoms: _78  and  _79
REMARK   34  A    between atoms: _82  and  _84
REMARK   35  A    between atoms: _84  and  _85
REMARK   36  A    between atoms: _87  and  _89
REMARK   37  A    between atoms: _89  and  _90
REMARK   38  A    between atoms: _89  and  _92
REMARK   39  A    between atoms: _92  and  _93
REMARK   40  A    between atoms: _98  and  _100
REMARK   41  A    between atoms: _100  and  _101
REMARK   42  A    between atoms: _100  and  _103
REMARK   43  A    between atoms: _103  and  _104
REMARK   44  A    between atoms: _104  and  _105
REMARK   45  A    between atoms: _105  and  _106
REMARK   46  A    between atoms: _115  and  _117
REMARK   47  A    between atoms: _117  and  _118
REMARK   48  A    between atoms: _117  and  _120
REMARK   49  A    between atoms: _120  and  _121
REMARK   50  A    between atoms: _124  and  _126
REMARK   51  A    between atoms: _126  and  _127
REMARK   52  A    between atoms: _130  and  _132
REMARK   53  A    between atoms: _132  and  _133
REMARK   54  A    between atoms: _132  and  _135
REMARK   55  A    between atoms: _135  and  _136
REMARK   56  A    between atoms: _136  and  _137
REMARK   57  A    between atoms: _137  and  _138
REMARK   58  A    between atoms: _147  and  _149
REMARK   59  A    between atoms: _149  and  _150
REMARK   60  A    between atoms: _149  and  _152
REMARK   61  A    between atoms: _152  and  _153
REMARK   62  A    between atoms: _160  and  _161
REMARK   63  A    between atoms: _166  and  _168
REMARK   64  A    between atoms: _168  and  _169
REMARK   65  A    between atoms: _168  and  _171
REMARK   66  A    between atoms: _171  and  _172
REMARK   67  A    between atoms: _175  and  _177
REMARK   68  A    between atoms: _177  and  _178
REMARK   69  A    between atoms: _177  and  _180
REMARK   70  A    between atoms: _180  and  _181
REMARK   71  A    between atoms: _186  and  _187
REMARK   72  A    between atoms: _189  and  _191
REMARK   73  A    between atoms: _191  and  _192
REMARK   74  A    between atoms: _191  and  _194
REMARK   75  A    between atoms: _194  and  _195
REMARK   76  A    between atoms: _195  and  _196
REMARK   77  A    between atoms: _196  and  _197
REMARK   78  A    between atoms: _206  and  _208
REMARK   79  A    between atoms: _208  and  _209
REMARK   80  A    between atoms: _208  and  _211
REMARK   81  A    between atoms: _214  and  _216
REMARK   82  A    between atoms: _216  and  _217
REMARK   83  A    between atoms: _216  and  _219
REMARK   84  A    between atoms: _219  and  _220
REMARK   85  A    between atoms: _223  and  _225
REMARK   86  A    between atoms: _225  and  _226
REMARK   87  A    between atoms: _225  and  _228
REMARK   88  A    between atoms: _228  and  _229
REMARK   89  A    between atoms: _234  and  _235
REMARK   90  A    between atoms: _237  and  _239
REMARK   91  A    between atoms: _239  and  _240
REMARK   92  A    between atoms: _239  and  _242
REMARK   93  A    between atoms: _242  and  _243
REMARK   94  A    between atoms: _245  and  _247
REMARK   95  A    between atoms: _247  and  _248
REMARK   96  A    between atoms: _247  and  _250
REMARK   97  A    between atoms: _253  and  _255
REMARK   98  A    between atoms: _255  and  _256
REMARK   99  A    between atoms: _255  and  _258
REMARK  100  A    between atoms: _258  and  _259
REMARK  101  A    between atoms: _264  and  _265
REMARK  102  A    between atoms: _267  and  _269
REMARK  103  A    between atoms: _269  and  _270
REMARK  104  A    between atoms: _269  and  _272
REMARK  105  A    between atoms: _275  and  _277
REMARK  106  A    between atoms: _277  and  _278
REMARK  107  A    between atoms: _277  and  _280
REMARK  108  A    between atoms: _283  and  _285
REMARK  109  A    between atoms: _285  and  _286
REMARK  110  A    between atoms: _285  and  _288
REMARK  111  A    between atoms: _288  and  _289
REMARK  112  A    between atoms: _289  and  _290
REMARK  113  A    between atoms: _293  and  _294
REMARK                            x       y       z     vdW  Elec       q    Type
REMARK                         _______ _______ _______ _____ _____    ______ ____
ROOT
ATOM      1  O   HOH     1     -35.206  -1.321 -17.652  0.00  0.00    +0.000 OA
ENDROOT
TORSDOF 0
REMARK  Name = ../refined-set-2016/4ovh/4ovh_pocket.pdb
REMARK  113 active torsions:
REMARK  status: ('A' for Active; 'I' for Inactive)
REMARK    1  A    between atoms: _1  and  _3
REMARK    2  A    between atoms: _3  and  _4
REMARK    3  A    between atoms: _3  and  _6
REMARK    4  A    between atoms: _6  and  _7
REMARK    5  A    between atoms: _9  and  _11
REMARK    6  A    between atoms: _11  and  _12
REMARK    7  A    between atoms: _11  and  _14
REMARK    8  A    between atoms: _14  and  _15
REMARK    9  A    between atoms: _18  and  _20
REMARK   10  A    between atoms: _20  and  _21
REMARK   11  A    between atoms: _20  and  _23
REMARK   12  A    between atoms: _23  and  _24
REMARK   13  A    between atoms: _24  and  _25
REMARK   14  A    between atoms: _25  and  _26
REMARK   15  A    between atoms: _35  and  _37
REMARK   16  A    between atoms: _37  and  _38
REMARK   17  A    between atoms: _37  and  _40
REMARK   18  A    between atoms: _40  and  _41
REMARK   19  A    between atoms: _46  and  _47
REMARK   20  A    between atoms: _49  and  _51
REMARK   21  A    between atoms: _51  and  _52
REMARK   22  A    between atoms: _51  and  _54
REMARK   23  A    between atoms: _54  and  _55
REMARK   24  A    between atoms: _58  and  _60
REMARK   25  A    between atoms: _60  and  _61
REMARK   26  A    between atoms: _64  and  _66
REMARK   27  A    between atoms: _66  and  _67
REMARK   28  A    between atoms: _66  and  _69
REMARK   29  A    between atoms: _69  and  _70
REMARK   30  A    between atoms: _73  and  _75
REMARK   31  A    between atoms: _75  and  _76
REMARK   32  A    between atoms: _75  and  _78
REMARK   33  A    between atoms: _78  and  _79
REMARK   34  A    between atoms: _82  and  _84
REMARK   35  A    between atoms: _84  and  _85
REMARK   36  A    between atoms: _87  and  _89
REMARK   37  A    between atoms: _89  and  _90
REMARK   38  A    between atoms: _89  and  _92
REMARK   39  A    between atoms: _92  and  _93
REMARK   40  A    between atoms: _98  and  _100
REMARK   41  A    between atoms: _100  and  _101
REMARK   42  A    between atoms: _100  and  _103
REMARK   43  A    between atoms: _103  and  _104
REMARK   44  A    between atoms: _104  and  _105
REMARK   45  A    between atoms: _105  and  _106
REMARK   46  A    between atoms: _115  and  _117
REMARK   47  A    between atoms: _117  and  _118
REMARK   48  A    between atoms: _117  and  _120
REMARK   49  A    between atoms: _120  and  _121
REMARK   50  A    between atoms: _124  and  _126
REMARK   51  A    between atoms: _126  and  _127
REMARK   52  A    between atoms: _130  and  _132
REMARK   53  A    between atoms: _132  and  _133
REMARK   54  A    between atoms: _132  and  _135
REMARK   55  A    between atoms: _135  and  _136
REMARK   56  A    between atoms: _136  and  _137
REMARK   57  A    between atoms: _137  and  _138
REMARK   58  A    between atoms: _147  and  _149
REMARK   59  A    between atoms: _149  and  _150
REMARK   60  A    between atoms: _149  and  _152
REMARK   61  A    between atoms: _152  and  _153
REMARK   62  A    between atoms: _160  and  _161
REMARK   63  A    between atoms: _166  and  _168
REMARK   64  A    between atoms: _168  and  _169
REMARK   65  A    between atoms: _168  and  _171
REMARK   66  A    between atoms: _171  and  _172
REMARK   67  A    between atoms: _175  and  _177
REMARK   68  A    between atoms: _177  and  _178
REMARK   69  A    between atoms: _177  and  _180
REMARK   70  A    between atoms: _180  and  _181
REMARK   71  A    between atoms: _186  and  _187
REMARK   72  A    between atoms: _189  and  _191
REMARK   73  A    between atoms: _191  and  _192
REMARK   74  A    between atoms: _191  and  _194
REMARK   75  A    between atoms: _194  and  _195
REMARK   76  A    between atoms: _195  and  _196
REMARK   77  A    between atoms: _196  and  _197
REMARK   78  A    between atoms: _206  and  _208
REMARK   79  A    between atoms: _208  and  _209
REMARK   80  A    between atoms: _208  and  _211
REMARK   81  A    between atoms: _214  and  _216
REMARK   82  A    between atoms: _216  and  _217
REMARK   83  A    between atoms: _216  and  _219
REMARK   84  A    between atoms: _219  and  _220
REMARK   85  A    between atoms: _223  and  _225
REMARK   86  A    between atoms: _225  and  _226
REMARK   87  A    between atoms: _225  and  _228
REMARK   88  A    between atoms: _228  and  _229
REMARK   89  A    between atoms: _234  and  _235
REMARK   90  A    between atoms: _237  and  _239
REMARK   91  A    between atoms: _239  and  _240
REMARK   92  A    between atoms: _239  and  _242
REMARK   93  A    between atoms: _242  and  _243
REMARK   94  A    between atoms: _245  and  _247
REMARK   95  A    between atoms: _247  and  _248
REMARK   96  A    between atoms: _247  and  _250
REMARK   97  A    between atoms: _253  and  _255
REMARK   98  A    between atoms: _255  and  _256
REMARK   99  A    between atoms: _255  and  _258
REMARK  100  A    between atoms: _258  and  _259
REMARK  101  A    between atoms: _264  and  _265
REMARK  102  A    between atoms: _267  and  _269
REMARK  103  A    between atoms: _269  and  _270
REMARK  104  A    between atoms: _269  and  _272
REMARK  105  A    between atoms: _275  and  _277
REMARK  106  A    between atoms: _277  and  _278
REMARK  107  A    between atoms: _277  and  _280
REMARK  108  A    between atoms: _283  and  _285
REMARK  109  A    between atoms: _285  and  _286
REMARK  110  A    between atoms: _285  and  _288
REMARK  111  A    between atoms: _288  and  _289
REMARK  112  A    between atoms: _289  and  _290
REMARK  113  A    between atoms: _293  and  _294
REMARK                            x       y       z     vdW  Elec       q    Type
REMARK                         _______ _______ _______ _____ _____    ______ ____
ROOT
ATOM      1  O   HOH     1     -29.872 -15.492  -7.128  0.00  0.00    +0.000 OA
ENDROOT
TORSDOF 0
REMARK  Name = ../refined-set-2016/4ovh/4ovh_pocket.pdb
REMARK  113 active torsions:
REMARK  status: ('A' for Active; 'I' for Inactive)
REMARK    1  A    between atoms: _1  and  _3
REMARK    2  A    between atoms: _3  and  _4
REMARK    3  A    between atoms: _3  and  _6
REMARK    4  A    between atoms: _6  and  _7
REMARK    5  A    between atoms: _9  and  _11
REMARK    6  A    between atoms: _11  and  _12
REMARK    7  A    between atoms: _11  and  _14
REMARK    8  A    between atoms: _14  and  _15
REMARK    9  A    between atoms: _18  and  _20
REMARK   10  A    between atoms: _20  and  _21
REMARK   11  A    between atoms: _20  and  _23
REMARK   12  A    between atoms: _23  and  _24
REMARK   13  A    between atoms: _24  and  _25
REMARK   14  A    between atoms: _25  and  _26
REMARK   15  A    between atoms: _35  and  _37
REMARK   16  A    between atoms: _37  and  _38
REMARK   17  A    between atoms: _37  and  _40
REMARK   18  A    between atoms: _40  and  _41
REMARK   19  A    between atoms: _46  and  _47
REMARK   20  A    between atoms: _49  and  _51
REMARK   21  A    between atoms: _51  and  _52
REMARK   22  A    between atoms: _51  and  _54
REMARK   23  A    between atoms: _54  and  _55
REMARK   24  A    between atoms: _58  and  _60
REMARK   25  A    between atoms: _60  and  _61
REMARK   26  A    between atoms: _64  and  _66
REMARK   27  A    between atoms: _66  and  _67
REMARK   28  A    between atoms: _66  and  _69
REMARK   29  A    between atoms: _69  and  _70
REMARK   30  A    between atoms: _73  and  _75
REMARK   31  A    between atoms: _75  and  _76
REMARK   32  A    between atoms: _75  and  _78
REMARK   33  A    between atoms: _78  and  _79
REMARK   34  A    between atoms: _82  and  _84
REMARK   35  A    between atoms: _84  and  _85
REMARK   36  A    between atoms: _87  and  _89
REMARK   37  A    between atoms: _89  and  _90
REMARK   38  A    between atoms: _89  and  _92
REMARK   39  A    between atoms: _92  and  _93
REMARK   40  A    between atoms: _98  and  _100
REMARK   41  A    between atoms: _100  and  _101
REMARK   42  A    between atoms: _100  and  _103
REMARK   43  A    between atoms: _103  and  _104
REMARK   44  A    between atoms: _104  and  _105
REMARK   45  A    between atoms: _105  and  _106
REMARK   46  A    between atoms: _115  and  _117
REMARK   47  A    between atoms: _117  and  _118
REMARK   48  A    between atoms: _117  and  _120
REMARK   49  A    between atoms: _120  and  _121
REMARK   50  A    between atoms: _124  and  _126
REMARK   51  A    between atoms: _126  and  _127
REMARK   52  A    between atoms: _130  and  _132
REMARK   53  A    between atoms: _132  and  _133
REMARK   54  A    between atoms: _132  and  _135
REMARK   55  A    between atoms: _135  and  _136
REMARK   56  A    between atoms: _136  and  _137
REMARK   57  A    between atoms: _137  and  _138
REMARK   58  A    between atoms: _147  and  _149
REMARK   59  A    between atoms: _149  and  _150
REMARK   60  A    between atoms: _149  and  _152
REMARK   61  A    between atoms: _152  and  _153
REMARK   62  A    between atoms: _160  and  _161
REMARK   63  A    between atoms: _166  and  _168
REMARK   64  A    between atoms: _168  and  _169
REMARK   65  A    between atoms: _168  and  _171
REMARK   66  A    between atoms: _171  and  _172
REMARK   67  A    between atoms: _175  and  _177
REMARK   68  A    between atoms: _177  and  _178
REMARK   69  A    between atoms: _177  and  _180
REMARK   70  A    between atoms: _180  and  _181
REMARK   71  A    between atoms: _186  and  _187
REMARK   72  A    between atoms: _189  and  _191
REMARK   73  A    between atoms: _191  and  _192
REMARK   74  A    between atoms: _191  and  _194
REMARK   75  A    between atoms: _194  and  _195
REMARK   76  A    between atoms: _195  and  _196
REMARK   77  A    between atoms: _196  and  _197
REMARK   78  A    between atoms: _206  and  _208
REMARK   79  A    between atoms: _208  and  _209
REMARK   80  A    between atoms: _208  and  _211
REMARK   81  A    between atoms: _214  and  _216
REMARK   82  A    between atoms: _216  and  _217
REMARK   83  A    between atoms: _216  and  _219
REMARK   84  A    between atoms: _219  and  _220
REMARK   85  A    between atoms: _223  and  _225
REMARK   86  A    between atoms: _225  and  _226
REMARK   87  A    between atoms: _225  and  _228
REMARK   88  A    between atoms: _228  and  _229
REMARK   89  A    between atoms: _234  and  _235
REMARK   90  A    between atoms: _237  and  _239
REMARK   91  A    between atoms: _239  and  _240
REMARK   92  A    between atoms: _239  and  _242
REMARK   93  A    between atoms: _242  and  _243
REMARK   94  A    between atoms: _245  and  _247
REMARK   95  A    between atoms: _247  and  _248
REMARK   96  A    between atoms: _247  and  _250
REMARK   97  A    between atoms: _253  and  _255
REMARK   98  A    between atoms: _255  and  _256
REMARK   99  A    between atoms: _255  and  _258
REMARK  100  A    between atoms: _258  and  _259
REMARK  101  A    between atoms: _264  and  _265
REMARK  102  A    between atoms: _267  and  _269
REMARK  103  A    between atoms: _269  and  _270
REMARK  104  A    between atoms: _269  and  _272
REMARK  105  A    between atoms: _275  and  _277
REMARK  106  A    between atoms: _277  and  _278
REMARK  107  A    between atoms: _277  and  _280
REMARK  108  A    between atoms: _283  and  _285
REMARK  109  A    between atoms: _285  and  _286
REMARK  110  A    between atoms: _285  and  _288
REMARK  111  A    between atoms: _288  and  _289
REMARK  112  A    between atoms: _289  and  _290
REMARK  113  A    between atoms: _293  and  _294
REMARK                            x       y       z     vdW  Elec       q    Type
REMARK                         _______ _______ _______ _____ _____    ______ ____
ROOT
ATOM      1  O   HOH     1     -21.730 -10.668  -9.638  0.00  0.00    +0.000 OA
ENDROOT
TORSDOF 0
REMARK  Name = ../refined-set-2016/4ovh/4ovh_pocket.pdb
REMARK  113 active torsions:
REMARK  status: ('A' for Active; 'I' for Inactive)
REMARK    1  A    between atoms: _1  and  _3
REMARK    2  A    between atoms: _3  and  _4
REMARK    3  A    between atoms: _3  and  _6
REMARK    4  A    between atoms: _6  and  _7
REMARK    5  A    between atoms: _9  and  _11
REMARK    6  A    between atoms: _11  and  _12
REMARK    7  A    between atoms: _11  and  _14
REMARK    8  A    between atoms: _14  and  _15
REMARK    9  A    between atoms: _18  and  _20
REMARK   10  A    between atoms: _20  and  _21
REMARK   11  A    between atoms: _20  and  _23
REMARK   12  A    between atoms: _23  and  _24
REMARK   13  A    between atoms: _24  and  _25
REMARK   14  A    between atoms: _25  and  _26
REMARK   15  A    between atoms: _35  and  _37
REMARK   16  A    between atoms: _37  and  _38
REMARK   17  A    between atoms: _37  and  _40
REMARK   18  A    between atoms: _40  and  _41
REMARK   19  A    between atoms: _46  and  _47
REMARK   20  A    between atoms: _49  and  _51
REMARK   21  A    between atoms: _51  and  _52
REMARK   22  A    between atoms: _51  and  _54
REMARK   23  A    between atoms: _54  and  _55
REMARK   24  A    between atoms: _58  and  _60
REMARK   25  A    between atoms: _60  and  _61
REMARK   26  A    between atoms: _64  and  _66
REMARK   27  A    between atoms: _66  and  _67
REMARK   28  A    between atoms: _66  and  _69
REMARK   29  A    between atoms: _69  and  _70
REMARK   30  A    between atoms: _73  and  _75
REMARK   31  A    between atoms: _75  and  _76
REMARK   32  A    between atoms: _75  and  _78
REMARK   33  A    between atoms: _78  and  _79
REMARK   34  A    between atoms: _82  and  _84
REMARK   35  A    between atoms: _84  and  _85
REMARK   36  A    between atoms: _87  and  _89
REMARK   37  A    between atoms: _89  and  _90
REMARK   38  A    between atoms: _89  and  _92
REMARK   39  A    between atoms: _92  and  _93
REMARK   40  A    between atoms: _98  and  _100
REMARK   41  A    between atoms: _100  and  _101
REMARK   42  A    between atoms: _100  and  _103
REMARK   43  A    between atoms: _103  and  _104
REMARK   44  A    between atoms: _104  and  _105
REMARK   45  A    between atoms: _105  and  _106
REMARK   46  A    between atoms: _115  and  _117
REMARK   47  A    between atoms: _117  and  _118
REMARK   48  A    between atoms: _117  and  _120
REMARK   49  A    between atoms: _120  and  _121
REMARK   50  A    between atoms: _124  and  _126
REMARK   51  A    between atoms: _126  and  _127
REMARK   52  A    between atoms: _130  and  _132
REMARK   53  A    between atoms: _132  and  _133
REMARK   54  A    between atoms: _132  and  _135
REMARK   55  A    between atoms: _135  and  _136
REMARK   56  A    between atoms: _136  and  _137
REMARK   57  A    between atoms: _137  and  _138
REMARK   58  A    between atoms: _147  and  _149
REMARK   59  A    between atoms: _149  and  _150
REMARK   60  A    between atoms: _149  and  _152
REMARK   61  A    between atoms: _152  and  _153
REMARK   62  A    between atoms: _160  and  _161
REMARK   63  A    between atoms: _166  and  _168
REMARK   64  A    between atoms: _168  and  _169
REMARK   65  A    between atoms: _168  and  _171
REMARK   66  A    between atoms: _171  and  _172
REMARK   67  A    between atoms: _175  and  _177
REMARK   68  A    between atoms: _177  and  _178
REMARK   69  A    between atoms: _177  and  _180
REMARK   70  A    between atoms: _180  and  _181
REMARK   71  A    between atoms: _186  and  _187
REMARK   72  A    between atoms: _189  and  _191
REMARK   73  A    between atoms: _191  and  _192
REMARK   74  A    between atoms: _191  and  _194
REMARK   75  A    between atoms: _194  and  _195
REMARK   76  A    between atoms: _195  and  _196
REMARK   77  A    between atoms: _196  and  _197
REMARK   78  A    between atoms: _206  and  _208
REMARK   79  A    between atoms: _208  and  _209
REMARK   80  A    between atoms: _208  and  _211
REMARK   81  A    between atoms: _214  and  _216
REMARK   82  A    between atoms: _216  and  _217
REMARK   83  A    between atoms: _216  and  _219
REMARK   84  A    between atoms: _219  and  _220
REMARK   85  A    between atoms: _223  and  _225
REMARK   86  A    between atoms: _225  and  _226
REMARK   87  A    between atoms: _225  and  _228
REMARK   88  A    between atoms: _228  and  _229
REMARK   89  A    between atoms: _234  and  _235
REMARK   90  A    between atoms: _237  and  _239
REMARK   91  A    between atoms: _239  and  _240
REMARK   92  A    between atoms: _239  and  _242
REMARK   93  A    between atoms: _242  and  _243
REMARK   94  A    between atoms: _245  and  _247
REMARK   95  A    between atoms: _247  and  _248
REMARK   96  A    between atoms: _247  and  _250
REMARK   97  A    between atoms: _253  and  _255
REMARK   98  A    between atoms: _255  and  _256
REMARK   99  A    between atoms: _255  and  _258
REMARK  100  A    between atoms: _258  and  _259
REMARK  101  A    between atoms: _264  and  _265
REMARK  102  A    between atoms: _267  and  _269
REMARK  103  A    between atoms: _269  and  _270
REMARK  104  A    between atoms: _269  and  _272
REMARK  105  A    between atoms: _275  and  _277
REMARK  106  A    between atoms: _277  and  _278
REMARK  107  A    between atoms: _277  and  _280
REMARK  108  A    between atoms: _283  and  _285
REMARK  109  A    between atoms: _285  and  _286
REMARK  110  A    between atoms: _285  and  _288
REMARK  111  A    between atoms: _288  and  _289
REMARK  112  A    between atoms: _289  and  _290
REMARK  113  A    between atoms: _293  and  _294
REMARK                            x       y       z     vdW  Elec       q    Type
REMARK                         _______ _______ _______ _____ _____    ______ ____
ROOT
ATOM      1  O   HOH     1     -27.053 -16.439  -6.568  0.00  0.00    +0.000 OA
ENDROOT
TORSDOF 0
REMARK  Name = ../refined-set-2016/4ovh/4ovh_pocket.pdb
REMARK  113 active torsions:
REMARK  status: ('A' for Active; 'I' for Inactive)
REMARK    1  A    between atoms: _1  and  _3
REMARK    2  A    between atoms: _3  and  _4
REMARK    3  A    between atoms: _3  and  _6
REMARK    4  A    between atoms: _6  and  _7
REMARK    5  A    between atoms: _9  and  _11
REMARK    6  A    between atoms: _11  and  _12
REMARK    7  A    between atoms: _11  and  _14
REMARK    8  A    between atoms: _14  and  _15
REMARK    9  A    between atoms: _18  and  _20
REMARK   10  A    between atoms: _20  and  _21
REMARK   11  A    between atoms: _20  and  _23
REMARK   12  A    between atoms: _23  and  _24
REMARK   13  A    between atoms: _24  and  _25
REMARK   14  A    between atoms: _25  and  _26
REMARK   15  A    between atoms: _35  and  _37
REMARK   16  A    between atoms: _37  and  _38
REMARK   17  A    between atoms: _37  and  _40
REMARK   18  A    between atoms: _40  and  _41
REMARK   19  A    between atoms: _46  and  _47
REMARK   20  A    between atoms: _49  and  _51
REMARK   21  A    between atoms: _51  and  _52
REMARK   22  A    between atoms: _51  and  _54
REMARK   23  A    between atoms: _54  and  _55
REMARK   24  A    between atoms: _58  and  _60
REMARK   25  A    between atoms: _60  and  _61
REMARK   26  A    between atoms: _64  and  _66
REMARK   27  A    between atoms: _66  and  _67
REMARK   28  A    between atoms: _66  and  _69
REMARK   29  A    between atoms: _69  and  _70
REMARK   30  A    between atoms: _73  and  _75
REMARK   31  A    between atoms: _75  and  _76
REMARK   32  A    between atoms: _75  and  _78
REMARK   33  A    between atoms: _78  and  _79
REMARK   34  A    between atoms: _82  and  _84
REMARK   35  A    between atoms: _84  and  _85
REMARK   36  A    between atoms: _87  and  _89
REMARK   37  A    between atoms: _89  and  _90
REMARK   38  A    between atoms: _89  and  _92
REMARK   39  A    between atoms: _92  and  _93
REMARK   40  A    between atoms: _98  and  _100
REMARK   41  A    between atoms: _100  and  _101
REMARK   42  A    between atoms: _100  and  _103
REMARK   43  A    between atoms: _103  and  _104
REMARK   44  A    between atoms: _104  and  _105
REMARK   45  A    between atoms: _105  and  _106
REMARK   46  A    between atoms: _115  and  _117
REMARK   47  A    between atoms: _117  and  _118
REMARK   48  A    between atoms: _117  and  _120
REMARK   49  A    between atoms: _120  and  _121
REMARK   50  A    between atoms: _124  and  _126
REMARK   51  A    between atoms: _126  and  _127
REMARK   52  A    between atoms: _130  and  _132
REMARK   53  A    between atoms: _132  and  _133
REMARK   54  A    between atoms: _132  and  _135
REMARK   55  A    between atoms: _135  and  _136
REMARK   56  A    between atoms: _136  and  _137
REMARK   57  A    between atoms: _137  and  _138
REMARK   58  A    between atoms: _147  and  _149
REMARK   59  A    between atoms: _149  and  _150
REMARK   60  A    between atoms: _149  and  _152
REMARK   61  A    between atoms: _152  and  _153
REMARK   62  A    between atoms: _160  and  _161
REMARK   63  A    between atoms: _166  and  _168
REMARK   64  A    between atoms: _168  and  _169
REMARK   65  A    between atoms: _168  and  _171
REMARK   66  A    between atoms: _171  and  _172
REMARK   67  A    between atoms: _175  and  _177
REMARK   68  A    between atoms: _177  and  _178
REMARK   69  A    between atoms: _177  and  _180
REMARK   70  A    between atoms: _180  and  _181
REMARK   71  A    between atoms: _186  and  _187
REMARK   72  A    between atoms: _189  and  _191
REMARK   73  A    between atoms: _191  and  _192
REMARK   74  A    between atoms: _191  and  _194
REMARK   75  A    between atoms: _194  and  _195
REMARK   76  A    between atoms: _195  and  _196
REMARK   77  A    between atoms: _196  and  _197
REMARK   78  A    between atoms: _206  and  _208
REMARK   79  A    between atoms: _208  and  _209
REMARK   80  A    between atoms: _208  and  _211
REMARK   81  A    between atoms: _214  and  _216
REMARK   82  A    between atoms: _216  and  _217
REMARK   83  A    between atoms: _216  and  _219
REMARK   84  A    between atoms: _219  and  _220
REMARK   85  A    between atoms: _223  and  _225
REMARK   86  A    between atoms: _225  and  _226
REMARK   87  A    between atoms: _225  and  _228
REMARK   88  A    between atoms: _228  and  _229
REMARK   89  A    between atoms: _234  and  _235
REMARK   90  A    between atoms: _237  and  _239
REMARK   91  A    between atoms: _239  and  _240
REMARK   92  A    between atoms: _239  and  _242
REMARK   93  A    between atoms: _242  and  _243
REMARK   94  A    between atoms: _245  and  _247
REMARK   95  A    between atoms: _247  and  _248
REMARK   96  A    between atoms: _247  and  _250
REMARK   97  A    between atoms: _253  and  _255
REMARK   98  A    between atoms: _255  and  _256
REMARK   99  A    between atoms: _255  and  _258
REMARK  100  A    between atoms: _258  and  _259
REMARK  101  A    between atoms: _264  and  _265
REMARK  102  A    between atoms: _267  and  _269
REMARK  103  A    between atoms: _269  and  _270
REMARK  104  A    between atoms: _269  and  _272
REMARK  105  A    between atoms: _275  and  _277
REMARK  106  A    between atoms: _277  and  _278
REMARK  107  A    between atoms: _277  and  _280
REMARK  108  A    between atoms: _283  and  _285
REMARK  109  A    between atoms: _285  and  _286
REMARK  110  A    between atoms: _285  and  _288
REMARK  111  A    between atoms: _288  and  _289
REMARK  112  A    between atoms: _289  and  _290
REMARK  113  A    between atoms: _293  and  _294
REMARK                            x       y       z     vdW  Elec       q    Type
REMARK                         _______ _______ _______ _____ _____    ______ ____
ROOT
ATOM      1  O   HOH     1     -34.309   1.574 -17.833  0.00  0.00    +0.000 OA
ENDROOT
TORSDOF 0
