REMARK  Name = ../refined-set-2016/3b5j/3b5j_pocket.pdb
REMARK  126 active torsions:
REMARK  status: ('A' for Active; 'I' for Inactive)
REMARK    1  A    between atoms: _1  and  _3
REMARK    2  A    between atoms: _3  and  _4
REMARK    3  A    between atoms: _3  and  _6
REMARK    4  A    between atoms: _6  and  _7
REMARK    5  A    between atoms: _13  and  _15
REMARK    6  A    between atoms: _15  and  _16
REMARK    7  A    between atoms: _15  and  _18
REMARK    8  A    between atoms: _18  and  _19
REMARK    9  A    between atoms: _19  and  _20
REMARK   10  A    between atoms: _20  and  _21
REMARK   11  A    between atoms: _30  and  _32
REMARK   12  A    between atoms: _32  and  _33
REMARK   13  A    between atoms: _32  and  _35
REMARK   14  A    between atoms: _35  and  _36
REMARK   15  A    between atoms: _41  and  _42
REMARK   16  A    between atoms: _44  and  _46
REMARK   17  A    between atoms: _46  and  _47
REMARK   18  A    between atoms: _46  and  _49
REMARK   19  A    between atoms: _49  and  _50
REMARK   20  A    between atoms: _50  and  _51
REMARK   21  A    between atoms: _51  and  _52
REMARK   22  A    between atoms: _52  and  _53
REMARK   23  A    between atoms: _57  and  _59
REMARK   24  A    between atoms: _59  and  _60
REMARK   25  A    between atoms: _59  and  _62
REMARK   26  A    between atoms: _62  and  _63
REMARK   27  A    between atoms: _66  and  _67
REMARK   28  A    between atoms: _72  and  _74
REMARK   29  A    between atoms: _74  and  _75
REMARK   30  A    between atoms: _74  and  _77
REMARK   31  A    between atoms: _80  and  _82
REMARK   32  A    between atoms: _82  and  _83
REMARK   33  A    between atoms: _82  and  _85
REMARK   34  A    between atoms: _85  and  _86
REMARK   35  A    between atoms: _89  and  _91
REMARK   36  A    between atoms: _91  and  _92
REMARK   37  A    between atoms: _91  and  _94
REMARK   38  A    between atoms: _94  and  _95
REMARK   39  A    between atoms: _98  and  _100
REMARK   40  A    between atoms: _100  and  _101
REMARK   41  A    between atoms: _100  and  _103
REMARK   42  A    between atoms: _103  and  _104
REMARK   43  A    between atoms: _107  and  _109
REMARK   44  A    between atoms: _109  and  _110
REMARK   45  A    between atoms: _109  and  _112
REMARK   46  A    between atoms: _115  and  _117
REMARK   47  A    between atoms: _117  and  _118
REMARK   48  A    between atoms: _120  and  _122
REMARK   49  A    between atoms: _122  and  _123
REMARK   50  A    between atoms: _122  and  _125
REMARK   51  A    between atoms: _125  and  _126
REMARK   52  A    between atoms: _126  and  _127
REMARK   53  A    between atoms: _127  and  _128
REMARK   54  A    between atoms: _137  and  _139
REMARK   55  A    between atoms: _139  and  _140
REMARK   56  A    between atoms: _143  and  _145
REMARK   57  A    between atoms: _145  and  _146
REMARK   58  A    between atoms: _148  and  _150
REMARK   59  A    between atoms: _150  and  _151
REMARK   60  A    between atoms: _150  and  _153
REMARK   61  A    between atoms: _153  and  _154
REMARK   62  A    between atoms: _156  and  _158
REMARK   63  A    between atoms: _158  and  _159
REMARK   64  A    between atoms: _161  and  _163
REMARK   65  A    between atoms: _163  and  _164
REMARK   66  A    between atoms: _163  and  _166
REMARK   67  A    between atoms: _166  and  _167
REMARK   68  A    between atoms: _167  and  _168
REMARK   69  A    between atoms: _168  and  _169
REMARK   70  A    between atoms: _169  and  _170
REMARK   71  A    between atoms: _174  and  _176
REMARK   72  A    between atoms: _176  and  _177
REMARK   73  A    between atoms: _176  and  _179
REMARK   74  A    between atoms: _179  and  _180
REMARK   75  A    between atoms: _182  and  _184
REMARK   76  A    between atoms: _184  and  _185
REMARK   77  A    between atoms: _184  and  _187
REMARK   78  A    between atoms: _187  and  _188
REMARK   79  A    between atoms: _191  and  _193
REMARK   80  A    between atoms: _193  and  _194
REMARK   81  A    between atoms: _193  and  _196
REMARK   82  A    between atoms: _196  and  _197
REMARK   83  A    between atoms: _200  and  _202
REMARK   84  A    between atoms: _202  and  _203
REMARK   85  A    between atoms: _202  and  _205
REMARK   86  A    between atoms: _205  and  _206
REMARK   87  A    between atoms: _209  and  _211
REMARK   88  A    between atoms: _211  and  _212
REMARK   89  A    between atoms: _211  and  _214
REMARK   90  A    between atoms: _214  and  _215
REMARK   91  A    between atoms: _215  and  _216
REMARK   92  A    between atoms: _216  and  _217
REMARK   93  A    between atoms: _217  and  _218
REMARK   94  A    between atoms: _222  and  _224
REMARK   95  A    between atoms: _224  and  _225
REMARK   96  A    between atoms: _224  and  _227
REMARK   97  A    between atoms: _227  and  _228
REMARK   98  A    between atoms: _233  and  _234
REMARK   99  A    between atoms: _236  and  _238
REMARK  100  A    between atoms: _238  and  _239
REMARK  101  A    between atoms: _238  and  _241
REMARK  102  A    between atoms: _241  and  _242
REMARK  103  A    between atoms: _242  and  _243
REMARK  104  A    between atoms: _246  and  _248
REMARK  105  A    between atoms: _248  and  _249
REMARK  106  A    between atoms: _248  and  _251
REMARK  107  A    between atoms: _251  and  _252
REMARK  108  A    between atoms: _255  and  _257
REMARK  109  A    between atoms: _257  and  _258
REMARK  110  A    between atoms: _257  and  _260
REMARK  111  A    between atoms: _260  and  _261
REMARK  112  A    between atoms: _261  and  _262
REMARK  113  A    between atoms: _264  and  _266
REMARK  114  A    between atoms: _266  and  _267
REMARK  115  A    between atoms: _266  and  _269
REMARK  116  A    between atoms: _269  and  _270
REMARK  117  A    between atoms: _270  and  _271
REMARK  118  A    between atoms: _274  and  _276
REMARK  119  A    between atoms: _276  and  _277
REMARK  120  A    between atoms: _276  and  _279
REMARK  121  A    between atoms: _279  and  _280
REMARK  122  A    between atoms: _280  and  _281
REMARK  123  A    between atoms: _281  and  _282
REMARK  124  A    between atoms: _282  and  _283
REMARK  125  A    between atoms: _287  and  _289
REMARK  126  A    between atoms: _289  and  _290
REMARK                            x       y       z     vdW  Elec       q    Type
REMARK                         _______ _______ _______ _____ _____    ______ ____
ROOT
ATOM      1  C   ARG A   2      35.364   7.947  29.191  0.00  0.00    +0.241 C 
ATOM      2  N   TYR A   3      34.266   8.526  29.670  0.00  0.00    -0.297 N 
ATOM      3  H   TYR A   3      33.769   8.094  30.475  0.00  0.00    +0.150 HD
ATOM      4  O   ARG A   2      36.028   8.426  28.266  0.00  0.00    -0.273 OA
ENDROOT
BRANCH   1   5
ATOM      5  CA  ARG A   2      35.790   6.637  29.850  0.00  0.00    +0.149 C 
BRANCH   5   8
ATOM      6  C   PHE A   1      36.184   4.512  28.690  0.00  0.00    +0.239 C 
ATOM      7  O   PHE A   1      35.556   3.826  29.506  0.00  0.00    -0.274 OA
ATOM      8  N   ARG A   2      36.437   5.810  28.845  0.00  0.00    -0.297 N 
ATOM      9  H   ARG A   2      37.134   6.255  28.214  0.00  0.00    +0.150 HD
BRANCH   6  10
ATOM     10  CA  PHE A   1      36.759   3.900  27.412  0.00  0.00    +0.149 C 
BRANCH  10  11
ATOM     11  N   PHE A   1      37.378   2.609  27.613  0.00  0.00    -0.238 NA
ATOM     12  H   PHE A   1      36.998   1.960  28.331  0.00  0.00    +0.142 HD
ENDBRANCH  10  11
BRANCH  10  13
ATOM     13  CB  PHE A   1      35.685   3.831  26.319  0.00  0.00    +0.053 C 
BRANCH  13  14
ATOM     14  CG  PHE A   1      34.936   5.128  26.135  0.00  0.00    -0.020 A 
ATOM     15  CD2 PHE A   1      33.617   5.249  26.551  0.00  0.00    -0.004 A 
ATOM     16  CE2 PHE A   1      32.930   6.453  26.405  0.00  0.00    -0.000 A 
ATOM     17  CZ  PHE A   1      33.567   7.543  25.848  0.00  0.00    -0.000 A 
ATOM     18  CE1 PHE A   1      34.895   7.436  25.433  0.00  0.00    -0.000 A 
ATOM     19  CD1 PHE A   1      35.570   6.236  25.581  0.00  0.00    -0.004 A 
ENDBRANCH  13  14
ENDBRANCH  10  13
ENDBRANCH   6  10
ENDBRANCH   5   8
BRANCH   5  20
ATOM     20  CB  ARG A   2      36.728   6.902  31.022  0.00  0.00    +0.033 C 
BRANCH  20  21
ATOM     21  CG  ARG A   2      37.889   7.862  30.749  0.00  0.00    +0.045 C 
BRANCH  21  22
ATOM     22  CD  ARG A   2      38.838   7.852  31.928  0.00  0.00    +0.174 C 
BRANCH  22  23
ATOM     23  NE  ARG A   2      39.693   6.666  31.924  0.00  0.00    -0.265 N 
ATOM     24  CZ  ARG A   2      40.176   6.078  33.015  0.00  0.00    +0.342 C 
ATOM     25  NH2 ARG A   2      39.861   6.533  34.222  0.00  0.00    -0.292 N 
ATOM     26 HH21 ARG A   2      40.243   6.067  35.070  0.00  0.00    +0.255 HD
ATOM     27 HH22 ARG A   2      39.232   7.355  34.320  0.00  0.00    +0.255 HD
ATOM     28  NH1 ARG A   2      40.960   5.011  32.900  0.00  0.00    -0.292 N 
ATOM     29 HH11 ARG A   2      41.339   4.550  33.752  0.00  0.00    +0.255 HD
ATOM     30 HH12 ARG A   2      41.195   4.637  31.958  0.00  0.00    +0.255 HD
ATOM     31  HE  ARG A   2      39.941   6.253  31.003  0.00  0.00    +0.259 HD
ENDBRANCH  22  23
ENDBRANCH  21  22
ENDBRANCH  20  21
ENDBRANCH   5  20
ENDBRANCH   1   5
BRANCH   2  32
ATOM     32  CA  TYR A   3      33.746   9.763  29.081  0.00  0.00    +0.153 C 
BRANCH  32  33
ATOM     33  C   TYR A   3      34.626  10.995  29.279  0.00  0.00    +0.241 C 
ATOM     34  N   LYS A   4      35.203  11.150  30.461  0.00  0.00    -0.298 N 
ATOM     35  H   LYS A   4      35.028  10.450  31.210  0.00  0.00    +0.150 HD
ATOM     36  O   TYR A   3      34.787  11.791  28.358  0.00  0.00    -0.273 OA
BRANCH  34  37
ATOM     37  CA  LYS A   4      36.084  12.290  30.733  0.00  0.00    +0.137 C 
BRANCH  37  38
ATOM     38  C   LYS A   4      37.411  11.808  31.304  0.00  0.00    +0.227 C 
ATOM     39  O   LYS A   4      37.446  10.762  31.953  0.00  0.00    -0.286 OA
ENDBRANCH  37  38
BRANCH  37  40
ATOM     40  CB  LYS A   4      35.406  13.292  31.679  0.00  0.00    +0.028 C 
BRANCH  40  41
ATOM     41  CG  LYS A   4      34.398  14.206  30.974  0.00  0.00    -0.000 C 
BRANCH  41  42
ATOM     42  CD  LYS A   4      33.541  15.000  31.956  0.00  0.00    -0.024 C 
BRANCH  42  43
ATOM     43  CE  LYS A   4      32.447  14.131  32.575  0.00  0.00    -0.086 C 
BRANCH  43  44
ATOM     44  NZ  LYS A   4      31.436  14.928  33.324  0.00  0.00    +0.380 N 
ATOM     45  HZ1 LYS A   4      31.906  15.446  34.093  0.00  0.00    -0.089 HD
ATOM     46  HZ2 LYS A   4      30.719  14.289  33.722  0.00  0.00    -0.089 HD
ATOM     47  HZ3 LYS A   4      30.980  15.603  32.677  0.00  0.00    -0.089 HD
ENDBRANCH  43  44
ENDBRANCH  42  43
ENDBRANCH  41  42
ENDBRANCH  40  41
ENDBRANCH  37  40
ENDBRANCH  34  37
ENDBRANCH  32  33
BRANCH  32  48
ATOM     48  CB  TYR A   3      32.312  10.014  29.540  0.00  0.00    +0.055 C 
BRANCH  48  49
ATOM     49  CG  TYR A   3      31.353   9.108  28.820  0.00  0.00    -0.020 A 
ATOM     50  CD2 TYR A   3      30.975   7.873  29.360  0.00  0.00    -0.001 A 
ATOM     51  CE2 TYR A   3      30.104   7.025  28.666  0.00  0.00    +0.036 A 
ATOM     52  CZ  TYR A   3      29.627   7.421  27.428  0.00  0.00    +0.134 A 
ATOM     53  CE1 TYR A   3      30.003   8.627  26.881  0.00  0.00    +0.036 A 
ATOM     54  CD1 TYR A   3      30.866   9.456  27.566  0.00  0.00    -0.001 A 
BRANCH  52  55
ATOM     55  OH  TYR A   3      28.771   6.621  26.716  0.00  0.00    -0.506 OA
ATOM     56  HH  TYR A   3      28.591   5.794  27.229  0.00  0.00    +0.292 HD
ENDBRANCH  52  55
ENDBRANCH  48  49
ENDBRANCH  32  48
ENDBRANCH   2  32
TORSDOF 22
REMARK  Name = ../refined-set-2016/3b5j/3b5j_pocket.pdb
REMARK  126 active torsions:
REMARK  status: ('A' for Active; 'I' for Inactive)
REMARK    1  A    between atoms: _1  and  _3
REMARK    2  A    between atoms: _3  and  _4
REMARK    3  A    between atoms: _3  and  _6
REMARK    4  A    between atoms: _6  and  _7
REMARK    5  A    between atoms: _13  and  _15
REMARK    6  A    between atoms: _15  and  _16
REMARK    7  A    between atoms: _15  and  _18
REMARK    8  A    between atoms: _18  and  _19
REMARK    9  A    between atoms: _19  and  _20
REMARK   10  A    between atoms: _20  and  _21
REMARK   11  A    between atoms: _30  and  _32
REMARK   12  A    between atoms: _32  and  _33
REMARK   13  A    between atoms: _32  and  _35
REMARK   14  A    between atoms: _35  and  _36
REMARK   15  A    between atoms: _41  and  _42
REMARK   16  A    between atoms: _44  and  _46
REMARK   17  A    between atoms: _46  and  _47
REMARK   18  A    between atoms: _46  and  _49
REMARK   19  A    between atoms: _49  and  _50
REMARK   20  A    between atoms: _50  and  _51
REMARK   21  A    between atoms: _51  and  _52
REMARK   22  A    between atoms: _52  and  _53
REMARK   23  A    between atoms: _57  and  _59
REMARK   24  A    between atoms: _59  and  _60
REMARK   25  A    between atoms: _59  and  _62
REMARK   26  A    between atoms: _62  and  _63
REMARK   27  A    between atoms: _66  and  _67
REMARK   28  A    between atoms: _72  and  _74
REMARK   29  A    between atoms: _74  and  _75
REMARK   30  A    between atoms: _74  and  _77
REMARK   31  A    between atoms: _80  and  _82
REMARK   32  A    between atoms: _82  and  _83
REMARK   33  A    between atoms: _82  and  _85
REMARK   34  A    between atoms: _85  and  _86
REMARK   35  A    between atoms: _89  and  _91
REMARK   36  A    between atoms: _91  and  _92
REMARK   37  A    between atoms: _91  and  _94
REMARK   38  A    between atoms: _94  and  _95
REMARK   39  A    between atoms: _98  and  _100
REMARK   40  A    between atoms: _100  and  _101
REMARK   41  A    between atoms: _100  and  _103
REMARK   42  A    between atoms: _103  and  _104
REMARK   43  A    between atoms: _107  and  _109
REMARK   44  A    between atoms: _109  and  _110
REMARK   45  A    between atoms: _109  and  _112
REMARK   46  A    between atoms: _115  and  _117
REMARK   47  A    between atoms: _117  and  _118
REMARK   48  A    between atoms: _120  and  _122
REMARK   49  A    between atoms: _122  and  _123
REMARK   50  A    between atoms: _122  and  _125
REMARK   51  A    between atoms: _125  and  _126
REMARK   52  A    between atoms: _126  and  _127
REMARK   53  A    between atoms: _127  and  _128
REMARK   54  A    between atoms: _137  and  _139
REMARK   55  A    between atoms: _139  and  _140
REMARK   56  A    between atoms: _143  and  _145
REMARK   57  A    between atoms: _145  and  _146
REMARK   58  A    between atoms: _148  and  _150
REMARK   59  A    between atoms: _150  and  _151
REMARK   60  A    between atoms: _150  and  _153
REMARK   61  A    between atoms: _153  and  _154
REMARK   62  A    between atoms: _156  and  _158
REMARK   63  A    between atoms: _158  and  _159
REMARK   64  A    between atoms: _161  and  _163
REMARK   65  A    between atoms: _163  and  _164
REMARK   66  A    between atoms: _163  and  _166
REMARK   67  A    between atoms: _166  and  _167
REMARK   68  A    between atoms: _167  and  _168
REMARK   69  A    between atoms: _168  and  _169
REMARK   70  A    between atoms: _169  and  _170
REMARK   71  A    between atoms: _174  and  _176
REMARK   72  A    between atoms: _176  and  _177
REMARK   73  A    between atoms: _176  and  _179
REMARK   74  A    between atoms: _179  and  _180
REMARK   75  A    between atoms: _182  and  _184
REMARK   76  A    between atoms: _184  and  _185
REMARK   77  A    between atoms: _184  and  _187
REMARK   78  A    between atoms: _187  and  _188
REMARK   79  A    between atoms: _191  and  _193
REMARK   80  A    between atoms: _193  and  _194
REMARK   81  A    between atoms: _193  and  _196
REMARK   82  A    between atoms: _196  and  _197
REMARK   83  A    between atoms: _200  and  _202
REMARK   84  A    between atoms: _202  and  _203
REMARK   85  A    between atoms: _202  and  _205
REMARK   86  A    between atoms: _205  and  _206
REMARK   87  A    between atoms: _209  and  _211
REMARK   88  A    between atoms: _211  and  _212
REMARK   89  A    between atoms: _211  and  _214
REMARK   90  A    between atoms: _214  and  _215
REMARK   91  A    between atoms: _215  and  _216
REMARK   92  A    between atoms: _216  and  _217
REMARK   93  A    between atoms: _217  and  _218
REMARK   94  A    between atoms: _222  and  _224
REMARK   95  A    between atoms: _224  and  _225
REMARK   96  A    between atoms: _224  and  _227
REMARK   97  A    between atoms: _227  and  _228
REMARK   98  A    between atoms: _233  and  _234
REMARK   99  A    between atoms: _236  and  _238
REMARK  100  A    between atoms: _238  and  _239
REMARK  101  A    between atoms: _238  and  _241
REMARK  102  A    between atoms: _241  and  _242
REMARK  103  A    between atoms: _242  and  _243
REMARK  104  A    between atoms: _246  and  _248
REMARK  105  A    between atoms: _248  and  _249
REMARK  106  A    between atoms: _248  and  _251
REMARK  107  A    between atoms: _251  and  _252
REMARK  108  A    between atoms: _255  and  _257
REMARK  109  A    between atoms: _257  and  _258
REMARK  110  A    between atoms: _257  and  _260
REMARK  111  A    between atoms: _260  and  _261
REMARK  112  A    between atoms: _261  and  _262
REMARK  113  A    between atoms: _264  and  _266
REMARK  114  A    between atoms: _266  and  _267
REMARK  115  A    between atoms: _266  and  _269
REMARK  116  A    between atoms: _269  and  _270
REMARK  117  A    between atoms: _270  and  _271
REMARK  118  A    between atoms: _274  and  _276
REMARK  119  A    between atoms: _276  and  _277
REMARK  120  A    between atoms: _276  and  _279
REMARK  121  A    between atoms: _279  and  _280
REMARK  122  A    between atoms: _280  and  _281
REMARK  123  A    between atoms: _281  and  _282
REMARK  124  A    between atoms: _282  and  _283
REMARK  125  A    between atoms: _287  and  _289
REMARK  126  A    between atoms: _289  and  _290
REMARK                            x       y       z     vdW  Elec       q    Type
REMARK                         _______ _______ _______ _____ _____    ______ ____
ROOT
ATOM      1  CA  VAL A   3      36.128   3.472  33.126  0.00  0.00    +0.149 C 
ENDROOT
BRANCH   1   3
ATOM      2  C   PRO A   2      35.285   5.484  34.246  0.00  0.00    +0.241 C 
ATOM      3  N   VAL A   3      36.004   4.364  34.275  0.00  0.00    -0.297 N 
ATOM      4  H   VAL A   3      36.499   4.114  35.155  0.00  0.00    +0.150 HD
ATOM      5  O   PRO A   2      34.757   5.935  33.224  0.00  0.00    -0.273 OA
BRANCH   2  11
ATOM      6  C   SER A   1      35.987   8.442  35.018  0.00  0.00    +0.244 C 
ATOM      7  N   PRO A   2      35.003   7.664  35.525  0.00  0.00    -0.272 N 
ATOM      8  CD  PRO A   2      33.730   8.110  36.122  0.00  0.00    +0.094 C 
ATOM      9  CG  PRO A   2      33.351   6.959  36.995  0.00  0.00    +0.024 C 
ATOM     10  CB  PRO A   2      33.833   5.759  36.264  0.00  0.00    +0.031 C 
ATOM     11  CA  PRO A   2      35.138   6.202  35.592  0.00  0.00    +0.152 C 
ATOM     12  O   SER A   1      37.063   7.978  34.634  0.00  0.00    -0.273 OA
BRANCH   6  13
ATOM     13  CA  SER A   1      35.760   9.965  34.989  0.00  0.00    +0.175 C 
BRANCH  13  14
ATOM     14  N   SER A   1      37.006  10.679  34.707  0.00  0.00    -0.236 NA
ATOM     15  H   SER A   1      37.094  11.199  33.811  0.00  0.00    +0.142 HD
ENDBRANCH  13  14
BRANCH  13  16
ATOM     16  CB  SER A   1      34.677  10.376  33.984  0.00  0.00    +0.163 C 
BRANCH  16  17
ATOM     17  OG  SER A   1      34.892   9.782  32.715  0.00  0.00    -0.380 OA
ATOM     18  H   SER A   1      35.772  10.068  32.363  0.00  0.00    +0.211 HD
ENDBRANCH  16  17
ENDBRANCH  13  16
ENDBRANCH   6  13
ENDBRANCH   2  11
ENDBRANCH   1   3
BRANCH   1  19
ATOM     19  C   VAL A   3      34.786   2.800  32.874  0.00  0.00    +0.241 C 
ATOM     20  O   VAL A   3      34.250   2.107  33.740  0.00  0.00    -0.273 OA
ATOM     21  N   ILE A   4      34.252   3.021  31.680  0.00  0.00    -0.297 N 
ATOM     22  H   ILE A   4      34.800   3.559  30.979  0.00  0.00    +0.150 HD
BRANCH  21  23
ATOM     23  CA  ILE A   4      32.925   2.538  31.313  0.00  0.00    +0.149 C 
BRANCH  23  24
ATOM     24  C   ILE A   4      33.012   1.237  30.529  0.00  0.00    +0.241 C 
ATOM     25  O   ILE A   4      32.154   0.372  30.658  0.00  0.00    -0.273 OA
ATOM     26  N   LEU A   5      34.044   1.125  29.703  0.00  0.00    -0.298 N 
ATOM     27  H   LEU A   5      34.689   1.933  29.596  0.00  0.00    +0.150 HD
BRANCH  26  28
ATOM     28  CA  LEU A   5      34.307  -0.085  28.941  0.00  0.00    +0.137 C 
BRANCH  28  29
ATOM     29  C   LEU A   5      35.718  -0.533  29.262  0.00  0.00    +0.227 C 
ATOM     30  O   LEU A   5      36.671   0.228  29.103  0.00  0.00    -0.286 OA
ENDBRANCH  28  29
BRANCH  28  31
ATOM     31  CB  LEU A   5      34.148   0.161  27.437  0.00  0.00    +0.028 C 
BRANCH  31  32
ATOM     32  CG  LEU A   5      32.769   0.522  26.869  0.00  0.00    +0.002 C 
ATOM     33  CD2 LEU A   5      31.703  -0.538  27.219  0.00  0.00    +0.000 C 
ATOM     34  CD1 LEU A   5      32.861   0.697  25.374  0.00  0.00    +0.000 C 
ENDBRANCH  31  32
ENDBRANCH  28  31
ENDBRANCH  26  28
ENDBRANCH  23  24
BRANCH  23  35
ATOM     35  CB  ILE A   4      32.149   3.606  30.494  0.00  0.00    +0.027 C 
ATOM     36  CG2 ILE A   4      30.819   3.046  29.949  0.00  0.00    +0.002 C 
BRANCH  35  37
ATOM     37  CG1 ILE A   4      31.934   4.887  31.323  0.00  0.00    +0.002 C 
ATOM     38  CD1 ILE A   4      31.636   4.651  32.813  0.00  0.00    +0.000 C 
ENDBRANCH  35  37
ENDBRANCH  23  35
ENDBRANCH  21  23
ENDBRANCH   1  19
BRANCH   1  39
ATOM     39  CB  VAL A   3      37.211   2.386  33.338  0.00  0.00    +0.027 C 
ATOM     40  CG2 VAL A   3      38.546   3.020  33.675  0.00  0.00    +0.002 C 
ATOM     41  CG1 VAL A   3      37.355   1.520  32.092  0.00  0.00    +0.002 C 
ENDBRANCH   1  39
TORSDOF 16
REMARK  Name = ../refined-set-2016/3b5j/3b5j_pocket.pdb
REMARK  126 active torsions:
REMARK  status: ('A' for Active; 'I' for Inactive)
REMARK    1  A    between atoms: _1  and  _3
REMARK    2  A    between atoms: _3  and  _4
REMARK    3  A    between atoms: _3  and  _6
REMARK    4  A    between atoms: _6  and  _7
REMARK    5  A    between atoms: _13  and  _15
REMARK    6  A    between atoms: _15  and  _16
REMARK    7  A    between atoms: _15  and  _18
REMARK    8  A    between atoms: _18  and  _19
REMARK    9  A    between atoms: _19  and  _20
REMARK   10  A    between atoms: _20  and  _21
REMARK   11  A    between atoms: _30  and  _32
REMARK   12  A    between atoms: _32  and  _33
REMARK   13  A    between atoms: _32  and  _35
REMARK   14  A    between atoms: _35  and  _36
REMARK   15  A    between atoms: _41  and  _42
REMARK   16  A    between atoms: _44  and  _46
REMARK   17  A    between atoms: _46  and  _47
REMARK   18  A    between atoms: _46  and  _49
REMARK   19  A    between atoms: _49  and  _50
REMARK   20  A    between atoms: _50  and  _51
REMARK   21  A    between atoms: _51  and  _52
REMARK   22  A    between atoms: _52  and  _53
REMARK   23  A    between atoms: _57  and  _59
REMARK   24  A    between atoms: _59  and  _60
REMARK   25  A    between atoms: _59  and  _62
REMARK   26  A    between atoms: _62  and  _63
REMARK   27  A    between atoms: _66  and  _67
REMARK   28  A    between atoms: _72  and  _74
REMARK   29  A    between atoms: _74  and  _75
REMARK   30  A    between atoms: _74  and  _77
REMARK   31  A    between atoms: _80  and  _82
REMARK   32  A    between atoms: _82  and  _83
REMARK   33  A    between atoms: _82  and  _85
REMARK   34  A    between atoms: _85  and  _86
REMARK   35  A    between atoms: _89  and  _91
REMARK   36  A    between atoms: _91  and  _92
REMARK   37  A    between atoms: _91  and  _94
REMARK   38  A    between atoms: _94  and  _95
REMARK   39  A    between atoms: _98  and  _100
REMARK   40  A    between atoms: _100  and  _101
REMARK   41  A    between atoms: _100  and  _103
REMARK   42  A    between atoms: _103  and  _104
REMARK   43  A    between atoms: _107  and  _109
REMARK   44  A    between atoms: _109  and  _110
REMARK   45  A    between atoms: _109  and  _112
REMARK   46  A    between atoms: _115  and  _117
REMARK   47  A    between atoms: _117  and  _118
REMARK   48  A    between atoms: _120  and  _122
REMARK   49  A    between atoms: _122  and  _123
REMARK   50  A    between atoms: _122  and  _125
REMARK   51  A    between atoms: _125  and  _126
REMARK   52  A    between atoms: _126  and  _127
REMARK   53  A    between atoms: _127  and  _128
REMARK   54  A    between atoms: _137  and  _139
REMARK   55  A    between atoms: _139  and  _140
REMARK   56  A    between atoms: _143  and  _145
REMARK   57  A    between atoms: _145  and  _146
REMARK   58  A    between atoms: _148  and  _150
REMARK   59  A    between atoms: _150  and  _151
REMARK   60  A    between atoms: _150  and  _153
REMARK   61  A    between atoms: _153  and  _154
REMARK   62  A    between atoms: _156  and  _158
REMARK   63  A    between atoms: _158  and  _159
REMARK   64  A    between atoms: _161  and  _163
REMARK   65  A    between atoms: _163  and  _164
REMARK   66  A    between atoms: _163  and  _166
REMARK   67  A    between atoms: _166  and  _167
REMARK   68  A    between atoms: _167  and  _168
REMARK   69  A    between atoms: _168  and  _169
REMARK   70  A    between atoms: _169  and  _170
REMARK   71  A    between atoms: _174  and  _176
REMARK   72  A    between atoms: _176  and  _177
REMARK   73  A    between atoms: _176  and  _179
REMARK   74  A    between atoms: _179  and  _180
REMARK   75  A    between atoms: _182  and  _184
REMARK   76  A    between atoms: _184  and  _185
REMARK   77  A    between atoms: _184  and  _187
REMARK   78  A    between atoms: _187  and  _188
REMARK   79  A    between atoms: _191  and  _193
REMARK   80  A    between atoms: _193  and  _194
REMARK   81  A    between atoms: _193  and  _196
REMARK   82  A    between atoms: _196  and  _197
REMARK   83  A    between atoms: _200  and  _202
REMARK   84  A    between atoms: _202  and  _203
REMARK   85  A    between atoms: _202  and  _205
REMARK   86  A    between atoms: _205  and  _206
REMARK   87  A    between atoms: _209  and  _211
REMARK   88  A    between atoms: _211  and  _212
REMARK   89  A    between atoms: _211  and  _214
REMARK   90  A    between atoms: _214  and  _215
REMARK   91  A    between atoms: _215  and  _216
REMARK   92  A    between atoms: _216  and  _217
REMARK   93  A    between atoms: _217  and  _218
REMARK   94  A    between atoms: _222  and  _224
REMARK   95  A    between atoms: _224  and  _225
REMARK   96  A    between atoms: _224  and  _227
REMARK   97  A    between atoms: _227  and  _228
REMARK   98  A    between atoms: _233  and  _234
REMARK   99  A    between atoms: _236  and  _238
REMARK  100  A    between atoms: _238  and  _239
REMARK  101  A    between atoms: _238  and  _241
REMARK  102  A    between atoms: _241  and  _242
REMARK  103  A    between atoms: _242  and  _243
REMARK  104  A    between atoms: _246  and  _248
REMARK  105  A    between atoms: _248  and  _249
REMARK  106  A    between atoms: _248  and  _251
REMARK  107  A    between atoms: _251  and  _252
REMARK  108  A    between atoms: _255  and  _257
REMARK  109  A    between atoms: _257  and  _258
REMARK  110  A    between atoms: _257  and  _260
REMARK  111  A    between atoms: _260  and  _261
REMARK  112  A    between atoms: _261  and  _262
REMARK  113  A    between atoms: _264  and  _266
REMARK  114  A    between atoms: _266  and  _267
REMARK  115  A    between atoms: _266  and  _269
REMARK  116  A    between atoms: _269  and  _270
REMARK  117  A    between atoms: _270  and  _271
REMARK  118  A    between atoms: _274  and  _276
REMARK  119  A    between atoms: _276  and  _277
REMARK  120  A    between atoms: _276  and  _279
REMARK  121  A    between atoms: _279  and  _280
REMARK  122  A    between atoms: _280  and  _281
REMARK  123  A    between atoms: _281  and  _282
REMARK  124  A    between atoms: _282  and  _283
REMARK  125  A    between atoms: _287  and  _289
REMARK  126  A    between atoms: _289  and  _290
REMARK                            x       y       z     vdW  Elec       q    Type
REMARK                         _______ _______ _______ _____ _____    ______ ____
ROOT
ATOM      1  C   GLY A   8      27.421  -0.328  27.488  0.00  0.00    +0.243 C 
ATOM      2  N   LYS A   9      26.174  -0.772  27.357  0.00  0.00    -0.297 N 
ATOM      3  H   LYS A   9      25.550  -0.794  28.188  0.00  0.00    +0.150 HD
ATOM      4  O   GLY A   8      28.184  -0.194  26.528  0.00  0.00    -0.273 OA
ENDROOT
BRANCH   1   5
ATOM      5  CA  GLY A   8      27.867   0.043  28.888  0.00  0.00    +0.176 C 
BRANCH   5   8
ATOM      6  C   SER A   7      27.437  -1.429  30.793  0.00  0.00    +0.243 C 
ATOM      7  O   SER A   7      28.542  -1.968  30.682  0.00  0.00    -0.273 OA
ATOM      8  N   GLY A   8      27.000  -0.504  29.940  0.00  0.00    -0.295 N 
ATOM      9  H   GLY A   8      26.022  -0.161  30.021  0.00  0.00    +0.150 HD
BRANCH   6  10
ATOM     10  CA  SER A   7      26.499  -1.797  31.961  0.00  0.00    +0.178 C 
BRANCH  10  13
ATOM     11  C   GLY A   6      25.722   0.369  32.794  0.00  0.00    +0.243 C 
ATOM     12  O   GLY A   6      26.851   0.691  33.166  0.00  0.00    -0.273 OA
ATOM     13  N   SER A   7      25.455  -0.794  32.200  0.00  0.00    -0.295 N 
ATOM     14  H   SER A   7      24.481  -0.996  31.898  0.00  0.00    +0.150 HD
BRANCH  11  15
ATOM     15  CA  GLY A   6      24.559   1.324  32.995  0.00  0.00    +0.176 C 
BRANCH  15  18
ATOM     16  C   ALA A   5      22.551   0.090  33.610  0.00  0.00    +0.241 C 
ATOM     17  O   ALA A   5      23.023  -0.223  34.701  0.00  0.00    -0.273 OA
ATOM     18  N   GLY A   6      23.238   0.771  32.697  0.00  0.00    -0.295 N 
ATOM     19  H   GLY A   6      22.828   0.913  31.752  0.00  0.00    +0.150 HD
BRANCH  16  20
ATOM     20  CA  ALA A   5      21.135  -0.346  33.218  0.00  0.00    +0.149 C 
ATOM     21  CB  ALA A   5      20.093   0.473  33.955  0.00  0.00    +0.031 C 
BRANCH  20  23
ATOM     22  C   ARG A   4      21.853  -2.647  33.075  0.00  0.00    +0.241 C 
ATOM     23  N   ALA A   5      20.977  -1.758  33.517  0.00  0.00    -0.297 N 
ATOM     24  H   ALA A   5      20.166  -2.075  34.085  0.00  0.00    +0.150 HD
ATOM     25  O   ARG A   4      22.751  -2.358  32.297  0.00  0.00    -0.273 OA
BRANCH  22  26
ATOM     26  CA  ARG A   4      21.691  -4.073  33.586  0.00  0.00    +0.149 C 
BRANCH  26  28
ATOM     27  C   GLY A   3      22.067  -5.134  31.427  0.00  0.00    +0.243 C 
ATOM     28  N   ARG A   4      22.361  -5.026  32.716  0.00  0.00    -0.297 N 
ATOM     29  H   ARG A   4      23.095  -5.644  33.118  0.00  0.00    +0.150 HD
ATOM     30  O   GLY A   3      21.231  -4.425  30.860  0.00  0.00    -0.273 OA
BRANCH  27  31
ATOM     31  CA  GLY A   3      22.830  -6.190  30.661  0.00  0.00    +0.176 C 
BRANCH  31  33
ATOM     32  C   VAL A   2      22.738  -6.927  28.340  0.00  0.00    +0.241 C 
ATOM     33  N   GLY A   3      22.121  -6.532  29.449  0.00  0.00    -0.295 N 
ATOM     34  H   GLY A   3      21.083  -6.466  29.444  0.00  0.00    +0.150 HD
ATOM     35  O   VAL A   2      23.955  -7.101  28.253  0.00  0.00    -0.273 OA
BRANCH  32  36
ATOM     36  CA  VAL A   2      21.838  -7.203  27.157  0.00  0.00    +0.148 C 
BRANCH  36  38
ATOM     37  C   ILE A   1      22.419  -6.571  24.875  0.00  0.00    +0.238 C 
ATOM     38  N   VAL A   2      22.637  -7.340  25.933  0.00  0.00    -0.297 N 
ATOM     39  H   VAL A   2      23.390  -8.056  25.895  0.00  0.00    +0.150 HD
ATOM     40  O   ILE A   1      21.535  -5.706  24.843  0.00  0.00    -0.274 OA
BRANCH  37  41
ATOM     41  CA  ILE A   1      23.309  -6.842  23.653  0.00  0.00    +0.145 C 
BRANCH  41  42
ATOM     42  CB  ILE A   1      24.234  -5.620  23.344  0.00  0.00    +0.025 C 
ATOM     43  CG2 ILE A   1      25.152  -5.331  24.560  0.00  0.00    +0.002 C 
BRANCH  42  44
ATOM     44  CG1 ILE A   1      25.068  -5.872  22.079  0.00  0.00    +0.002 C 
ATOM     45  CD1 ILE A   1      26.068  -4.760  21.719  0.00  0.00    +0.000 C 
ENDBRANCH  42  44
ENDBRANCH  41  42
BRANCH  41  46
ATOM     46  N   ILE A   1      22.455  -7.220  22.531  0.00  0.00    -0.238 NA
ATOM     47  H   ILE A   1      21.717  -6.563  22.207  0.00  0.00    +0.142 HD
ENDBRANCH  41  46
ENDBRANCH  37  41
ENDBRANCH  36  38
BRANCH  36  48
ATOM     48  CB  VAL A   2      21.026  -8.471  27.456  0.00  0.00    +0.027 C 
ATOM     49  CG2 VAL A   2      21.958  -9.671  27.622  0.00  0.00    +0.002 C 
ATOM     50  CG1 VAL A   2      19.988  -8.722  26.365  0.00  0.00    +0.002 C 
ENDBRANCH  36  48
ENDBRANCH  32  36
ENDBRANCH  31  33
ENDBRANCH  27  31
ENDBRANCH  26  28
BRANCH  26  51
ATOM     51  CB  ARG A   4      22.267  -4.168  34.993  0.00  0.00    +0.033 C 
BRANCH  51  52
ATOM     52  CG  ARG A   4      21.893  -5.429  35.748  0.00  0.00    +0.045 C 
BRANCH  52  53
ATOM     53  CD  ARG A   4      22.669  -5.485  37.038  0.00  0.00    +0.174 C 
BRANCH  53  54
ATOM     54  NE  ARG A   4      22.183  -6.542  37.920  0.00  0.00    -0.265 N 
ATOM     55  HE  ARG A   4      21.281  -6.387  38.413  0.00  0.00    +0.259 HD
ATOM     56  CZ  ARG A   4      22.818  -7.689  38.134  0.00  0.00    +0.342 C 
ATOM     57  NH2 ARG A   4      22.302  -8.586  38.960  0.00  0.00    -0.292 N 
ATOM     58 HH21 ARG A   4      21.400  -8.392  39.441  0.00  0.00    +0.255 HD
ATOM     59 HH22 ARG A   4      22.798  -9.484  39.128  0.00  0.00    +0.255 HD
ATOM     60  NH1 ARG A   4      23.978  -7.929  37.540  0.00  0.00    -0.292 N 
ATOM     61 HH11 ARG A   4      24.473  -8.828  37.709  0.00  0.00    +0.255 HD
ATOM     62 HH12 ARG A   4      24.394  -7.218  36.904  0.00  0.00    +0.255 HD
ENDBRANCH  53  54
ENDBRANCH  52  53
ENDBRANCH  51  52
ENDBRANCH  26  51
ENDBRANCH  22  26
ENDBRANCH  20  23
ENDBRANCH  16  20
ENDBRANCH  15  18
ENDBRANCH  11  15
ENDBRANCH  10  13
BRANCH  10  63
ATOM     63  CB  SER A   7      25.898  -3.202  31.785  0.00  0.00    +0.166 C 
BRANCH  63  64
ATOM     64  OG  SER A   7      25.123  -3.298  30.604  0.00  0.00    -0.380 OA
ATOM     65  H   SER A   7      24.380  -2.644  30.644  0.00  0.00    +0.211 HD
ENDBRANCH  63  64
ENDBRANCH  10  63
ENDBRANCH   6  10
ENDBRANCH   5   8
ENDBRANCH   1   5
BRANCH   2  66
ATOM     66  CA  LYS A   9      25.664  -1.231  26.062  0.00  0.00    +0.149 C 
BRANCH  66  67
ATOM     67  C   LYS A   9      25.561  -0.087  25.053  0.00  0.00    +0.241 C 
ATOM     68  N   SER A  10      24.941   1.022  25.456  0.00  0.00    -0.295 N 
ATOM     69  H   SER A  10      24.524   1.055  26.408  0.00  0.00    +0.150 HD
ATOM     70  O   LYS A   9      26.066  -0.209  23.932  0.00  0.00    -0.273 OA
BRANCH  68  71
ATOM     71  CA  SER A  10      24.835   2.201  24.580  0.00  0.00    +0.178 C 
BRANCH  71  72
ATOM     72  C   SER A  10      26.212   2.759  24.255  0.00  0.00    +0.243 C 
ATOM     73  N   THR A  11      27.061   2.861  25.273  0.00  0.00    -0.295 N 
ATOM     74  H   THR A  11      26.751   2.575  26.224  0.00  0.00    +0.150 HD
ATOM     75  O   SER A  10      26.500   3.082  23.100  0.00  0.00    -0.273 OA
BRANCH  73  76
ATOM     76  CA  THR A  11      28.416   3.364  25.088  0.00  0.00    +0.176 C 
BRANCH  76  77
ATOM     77  C   THR A  11      29.133   2.604  23.975  0.00  0.00    +0.243 C 
ATOM     78  N   LEU A  12      28.954   1.291  23.957  0.00  0.00    -0.297 N 
ATOM     79  H   LEU A  12      28.380   0.845  24.701  0.00  0.00    +0.150 HD
ATOM     80  O   THR A  11      29.803   3.202  23.132  0.00  0.00    -0.273 OA
BRANCH  78  81
ATOM     81  CA  LEU A  12      29.542   0.465  22.922  0.00  0.00    +0.149 C 
BRANCH  81  82
ATOM     82  C   LEU A  12      29.159   0.942  21.501  0.00  0.00    +0.241 C 
ATOM     83  N   THR A  13      27.879   1.227  21.291  0.00  0.00    -0.295 N 
ATOM     84  H   THR A  13      27.213   1.179  22.088  0.00  0.00    +0.150 HD
ATOM     85  O   LEU A  12      30.015   1.071  20.624  0.00  0.00    -0.273 OA
BRANCH  83  86
ATOM     86  CA  THR A  13      27.379   1.607  19.968  0.00  0.00    +0.176 C 
BRANCH  86  87
ATOM     87  C   THR A  13      27.816   3.010  19.589  0.00  0.00    +0.243 C 
ATOM     88  N   LYS A  14      28.020   3.853  20.595  0.00  0.00    -0.298 N 
ATOM     89  H   LYS A  14      27.802   3.543  21.563  0.00  0.00    +0.150 HD
ATOM     90  O   THR A  13      27.955   3.322  18.406  0.00  0.00    -0.273 OA
BRANCH  88  91
ATOM     91  CA  LYS A  14      28.538   5.195  20.386  0.00  0.00    +0.137 C 
BRANCH  91  92
ATOM     92  C   LYS A  14      29.941   5.129  19.795  0.00  0.00    +0.227 C 
ATOM     93  O   LYS A  14      30.270   5.910  18.913  0.00  0.00    -0.286 OA
ENDBRANCH  91  92
BRANCH  91  94
ATOM     94  CB  LYS A  14      28.576   5.975  21.699  0.00  0.00    +0.028 C 
BRANCH  94  95
ATOM     95  CG  LYS A  14      27.213   6.282  22.284  0.00  0.00    -0.000 C 
BRANCH  95  96
ATOM     96  CD  LYS A  14      27.388   6.986  23.618  0.00  0.00    -0.024 C 
BRANCH  96  97
ATOM     97  CE  LYS A  14      26.133   6.927  24.457  0.00  0.00    -0.086 C 
BRANCH  97  98
ATOM     98  NZ  LYS A  14      26.354   7.640  25.749  0.00  0.00    +0.380 N 
ATOM     99  HZ1 LYS A  14      25.487   7.595  26.321  0.00  0.00    -0.089 HD
ATOM    100  HZ2 LYS A  14      27.135   7.186  26.265  0.00  0.00    -0.089 HD
ATOM    101  HZ3 LYS A  14      26.594   8.634  25.558  0.00  0.00    -0.089 HD
ENDBRANCH  97  98
ENDBRANCH  96  97
ENDBRANCH  95  96
ENDBRANCH  94  95
ENDBRANCH  91  94
ENDBRANCH  88  91
ENDBRANCH  86  87
BRANCH  86 102
ATOM    102  CB  THR A  13      25.852   1.532  19.894  0.00  0.00    +0.137 C 
ATOM    103  CG2 THR A  13      25.362   0.154  20.349  0.00  0.00    +0.034 C 
BRANCH 102 104
ATOM    104  OG1 THR A  13      25.290   2.553  20.724  0.00  0.00    -0.382 OA
ATOM    105  HG1 THR A  13      25.585   2.416  21.659  0.00  0.00    +0.210 HD
ENDBRANCH 102 104
ENDBRANCH  86 102
ENDBRANCH  83  86
ENDBRANCH  81  82
BRANCH  81 106
ATOM    106  CB  LEU A  12      29.152  -0.999  23.172  0.00  0.00    +0.029 C 
BRANCH 106 107
ATOM    107  CG  LEU A  12      29.970  -2.107  22.517  0.00  0.00    +0.002 C 
ATOM    108  CD2 LEU A  12      29.906  -3.360  23.372  0.00  0.00    +0.000 C 
ATOM    109  CD1 LEU A  12      29.454  -2.376  21.097  0.00  0.00    +0.000 C 
ENDBRANCH 106 107
ENDBRANCH  81 106
ENDBRANCH  78  81
ENDBRANCH  76  77
BRANCH  76 110
ATOM    110  CB  THR A  11      29.200   3.330  26.404  0.00  0.00    +0.137 C 
ATOM    111  CG2 THR A  11      30.641   3.752  26.182  0.00  0.00    +0.034 C 
BRANCH 110 112
ATOM    112  OG1 THR A  11      28.582   4.241  27.321  0.00  0.00    -0.382 OA
ATOM    113  HG1 THR A  11      29.077   4.231  28.178  0.00  0.00    +0.210 HD
ENDBRANCH 110 112
ENDBRANCH  76 110
ENDBRANCH  73  76
ENDBRANCH  71  72
BRANCH  71 114
ATOM    114  CB  SER A  10      23.982   3.301  25.200  0.00  0.00    +0.166 C 
BRANCH 114 115
ATOM    115  OG  SER A  10      23.956   4.436  24.347  0.00  0.00    -0.380 OA
ATOM    116  H   SER A  10      23.572   4.180  23.471  0.00  0.00    +0.211 HD
ENDBRANCH 114 115
ENDBRANCH  71 114
ENDBRANCH  68  71
ENDBRANCH  66  67
BRANCH  66 117
ATOM    117  CB  LYS A   9      24.320  -1.934  26.208  0.00  0.00    +0.029 C 
BRANCH 117 118
ATOM    118  CG  LYS A   9      24.218  -2.897  27.402  0.00  0.00    +0.000 C 
BRANCH 118 119
ATOM    119  CD  LYS A   9      22.831  -3.541  27.449  0.00  0.00    -0.024 C 
BRANCH 119 120
ATOM    120  CE  LYS A   9      21.746  -2.594  27.930  0.00  0.00    -0.086 C 
BRANCH 120 121
ATOM    121  NZ  LYS A   9      21.915  -2.161  29.355  0.00  0.00    +0.380 N 
ATOM    122  HZ1 LYS A   9      21.896  -2.996  29.974  0.00  0.00    -0.089 HD
ATOM    123  HZ2 LYS A   9      21.140  -1.517  29.615  0.00  0.00    -0.089 HD
ATOM    124  HZ3 LYS A   9      22.826  -1.670  29.461  0.00  0.00    -0.089 HD
ENDBRANCH 120 121
ENDBRANCH 119 120
ENDBRANCH 118 119
ENDBRANCH 117 118
ENDBRANCH  66 117
ENDBRANCH   2  66
TORSDOF 55
REMARK  Name = ../refined-set-2016/3b5j/3b5j_pocket.pdb
REMARK  126 active torsions:
REMARK  status: ('A' for Active; 'I' for Inactive)
REMARK    1  A    between atoms: _1  and  _3
REMARK    2  A    between atoms: _3  and  _4
REMARK    3  A    between atoms: _3  and  _6
REMARK    4  A    between atoms: _6  and  _7
REMARK    5  A    between atoms: _13  and  _15
REMARK    6  A    between atoms: _15  and  _16
REMARK    7  A    between atoms: _15  and  _18
REMARK    8  A    between atoms: _18  and  _19
REMARK    9  A    between atoms: _19  and  _20
REMARK   10  A    between atoms: _20  and  _21
REMARK   11  A    between atoms: _30  and  _32
REMARK   12  A    between atoms: _32  and  _33
REMARK   13  A    between atoms: _32  and  _35
REMARK   14  A    between atoms: _35  and  _36
REMARK   15  A    between atoms: _41  and  _42
REMARK   16  A    between atoms: _44  and  _46
REMARK   17  A    between atoms: _46  and  _47
REMARK   18  A    between atoms: _46  and  _49
REMARK   19  A    between atoms: _49  and  _50
REMARK   20  A    between atoms: _50  and  _51
REMARK   21  A    between atoms: _51  and  _52
REMARK   22  A    between atoms: _52  and  _53
REMARK   23  A    between atoms: _57  and  _59
REMARK   24  A    between atoms: _59  and  _60
REMARK   25  A    between atoms: _59  and  _62
REMARK   26  A    between atoms: _62  and  _63
REMARK   27  A    between atoms: _66  and  _67
REMARK   28  A    between atoms: _72  and  _74
REMARK   29  A    between atoms: _74  and  _75
REMARK   30  A    between atoms: _74  and  _77
REMARK   31  A    between atoms: _80  and  _82
REMARK   32  A    between atoms: _82  and  _83
REMARK   33  A    between atoms: _82  and  _85
REMARK   34  A    between atoms: _85  and  _86
REMARK   35  A    between atoms: _89  and  _91
REMARK   36  A    between atoms: _91  and  _92
REMARK   37  A    between atoms: _91  and  _94
REMARK   38  A    between atoms: _94  and  _95
REMARK   39  A    between atoms: _98  and  _100
REMARK   40  A    between atoms: _100  and  _101
REMARK   41  A    between atoms: _100  and  _103
REMARK   42  A    between atoms: _103  and  _104
REMARK   43  A    between atoms: _107  and  _109
REMARK   44  A    between atoms: _109  and  _110
REMARK   45  A    between atoms: _109  and  _112
REMARK   46  A    between atoms: _115  and  _117
REMARK   47  A    between atoms: _117  and  _118
REMARK   48  A    between atoms: _120  and  _122
REMARK   49  A    between atoms: _122  and  _123
REMARK   50  A    between atoms: _122  and  _125
REMARK   51  A    between atoms: _125  and  _126
REMARK   52  A    between atoms: _126  and  _127
REMARK   53  A    between atoms: _127  and  _128
REMARK   54  A    between atoms: _137  and  _139
REMARK   55  A    between atoms: _139  and  _140
REMARK   56  A    between atoms: _143  and  _145
REMARK   57  A    between atoms: _145  and  _146
REMARK   58  A    between atoms: _148  and  _150
REMARK   59  A    between atoms: _150  and  _151
REMARK   60  A    between atoms: _150  and  _153
REMARK   61  A    between atoms: _153  and  _154
REMARK   62  A    between atoms: _156  and  _158
REMARK   63  A    between atoms: _158  and  _159
REMARK   64  A    between atoms: _161  and  _163
REMARK   65  A    between atoms: _163  and  _164
REMARK   66  A    between atoms: _163  and  _166
REMARK   67  A    between atoms: _166  and  _167
REMARK   68  A    between atoms: _167  and  _168
REMARK   69  A    between atoms: _168  and  _169
REMARK   70  A    between atoms: _169  and  _170
REMARK   71  A    between atoms: _174  and  _176
REMARK   72  A    between atoms: _176  and  _177
REMARK   73  A    between atoms: _176  and  _179
REMARK   74  A    between atoms: _179  and  _180
REMARK   75  A    between atoms: _182  and  _184
REMARK   76  A    between atoms: _184  and  _185
REMARK   77  A    between atoms: _184  and  _187
REMARK   78  A    between atoms: _187  and  _188
REMARK   79  A    between atoms: _191  and  _193
REMARK   80  A    between atoms: _193  and  _194
REMARK   81  A    between atoms: _193  and  _196
REMARK   82  A    between atoms: _196  and  _197
REMARK   83  A    between atoms: _200  and  _202
REMARK   84  A    between atoms: _202  and  _203
REMARK   85  A    between atoms: _202  and  _205
REMARK   86  A    between atoms: _205  and  _206
REMARK   87  A    between atoms: _209  and  _211
REMARK   88  A    between atoms: _211  and  _212
REMARK   89  A    between atoms: _211  and  _214
REMARK   90  A    between atoms: _214  and  _215
REMARK   91  A    between atoms: _215  and  _216
REMARK   92  A    between atoms: _216  and  _217
REMARK   93  A    between atoms: _217  and  _218
REMARK   94  A    between atoms: _222  and  _224
REMARK   95  A    between atoms: _224  and  _225
REMARK   96  A    between atoms: _224  and  _227
REMARK   97  A    between atoms: _227  and  _228
REMARK   98  A    between atoms: _233  and  _234
REMARK   99  A    between atoms: _236  and  _238
REMARK  100  A    between atoms: _238  and  _239
REMARK  101  A    between atoms: _238  and  _241
REMARK  102  A    between atoms: _241  and  _242
REMARK  103  A    between atoms: _242  and  _243
REMARK  104  A    between atoms: _246  and  _248
REMARK  105  A    between atoms: _248  and  _249
REMARK  106  A    between atoms: _248  and  _251
REMARK  107  A    between atoms: _251  and  _252
REMARK  108  A    between atoms: _255  and  _257
REMARK  109  A    between atoms: _257  and  _258
REMARK  110  A    between atoms: _257  and  _260
REMARK  111  A    between atoms: _260  and  _261
REMARK  112  A    between atoms: _261  and  _262
REMARK  113  A    between atoms: _264  and  _266
REMARK  114  A    between atoms: _266  and  _267
REMARK  115  A    between atoms: _266  and  _269
REMARK  116  A    between atoms: _269  and  _270
REMARK  117  A    between atoms: _270  and  _271
REMARK  118  A    between atoms: _274  and  _276
REMARK  119  A    between atoms: _276  and  _277
REMARK  120  A    between atoms: _276  and  _279
REMARK  121  A    between atoms: _279  and  _280
REMARK  122  A    between atoms: _280  and  _281
REMARK  123  A    between atoms: _281  and  _282
REMARK  124  A    between atoms: _282  and  _283
REMARK  125  A    between atoms: _287  and  _289
REMARK  126  A    between atoms: _289  and  _290
REMARK                            x       y       z     vdW  Elec       q    Type
REMARK                         _______ _______ _______ _____ _____    ______ ____
ROOT
ATOM      1  CG  TYR A   1      32.249   9.569  23.151  0.00  0.00    -0.020 A 
ATOM      2  CD2 TYR A   1      32.569  10.719  23.872  0.00  0.00    -0.001 A 
ATOM      3  CE2 TYR A   1      31.568  11.530  24.414  0.00  0.00    +0.036 A 
ATOM      4  CZ  TYR A   1      30.241  11.184  24.226  0.00  0.00    +0.134 A 
ATOM      5  CE1 TYR A   1      29.900  10.047  23.514  0.00  0.00    +0.036 A 
ATOM      6  CD1 TYR A   1      30.903   9.247  22.980  0.00  0.00    -0.001 A 
ENDROOT
BRANCH   4   7
ATOM      7  OH  TYR A   1      29.248  11.968  24.754  0.00  0.00    -0.506 OA
ATOM      8  HH  TYR A   1      28.668  12.300  24.024  0.00  0.00    +0.292 HD
ENDBRANCH   4   7
BRANCH   1   9
ATOM      9  CB  TYR A   1      33.337   8.687  22.573  0.00  0.00    +0.051 C 
BRANCH   9  10
ATOM     10  CA  TYR A   1      33.808   9.105  21.181  0.00  0.00    +0.137 C 
BRANCH  10  11
ATOM     11  N   TYR A   1      32.742   8.972  20.213  0.00  0.00    -0.239 NA
ATOM     12  H   TYR A   1      32.556   8.034  19.804  0.00  0.00    +0.142 HD
ENDBRANCH  10  11
BRANCH  10  13
ATOM     13  C   TYR A   1      34.982   8.247  20.752  0.00  0.00    +0.224 C 
ATOM     14  O   TYR A   1      34.839   7.338  19.922  0.00  0.00    -0.287 OA
ENDBRANCH  10  13
ENDBRANCH   9  10
ENDBRANCH   1   9
TORSDOF 5
REMARK  Name = ../refined-set-2016/3b5j/3b5j_pocket.pdb
REMARK  126 active torsions:
REMARK  status: ('A' for Active; 'I' for Inactive)
REMARK    1  A    between atoms: _1  and  _3
REMARK    2  A    between atoms: _3  and  _4
REMARK    3  A    between atoms: _3  and  _6
REMARK    4  A    between atoms: _6  and  _7
REMARK    5  A    between atoms: _13  and  _15
REMARK    6  A    between atoms: _15  and  _16
REMARK    7  A    between atoms: _15  and  _18
REMARK    8  A    between atoms: _18  and  _19
REMARK    9  A    between atoms: _19  and  _20
REMARK   10  A    between atoms: _20  and  _21
REMARK   11  A    between atoms: _30  and  _32
REMARK   12  A    between atoms: _32  and  _33
REMARK   13  A    between atoms: _32  and  _35
REMARK   14  A    between atoms: _35  and  _36
REMARK   15  A    between atoms: _41  and  _42
REMARK   16  A    between atoms: _44  and  _46
REMARK   17  A    between atoms: _46  and  _47
REMARK   18  A    between atoms: _46  and  _49
REMARK   19  A    between atoms: _49  and  _50
REMARK   20  A    between atoms: _50  and  _51
REMARK   21  A    between atoms: _51  and  _52
REMARK   22  A    between atoms: _52  and  _53
REMARK   23  A    between atoms: _57  and  _59
REMARK   24  A    between atoms: _59  and  _60
REMARK   25  A    between atoms: _59  and  _62
REMARK   26  A    between atoms: _62  and  _63
REMARK   27  A    between atoms: _66  and  _67
REMARK   28  A    between atoms: _72  and  _74
REMARK   29  A    between atoms: _74  and  _75
REMARK   30  A    between atoms: _74  and  _77
REMARK   31  A    between atoms: _80  and  _82
REMARK   32  A    between atoms: _82  and  _83
REMARK   33  A    between atoms: _82  and  _85
REMARK   34  A    between atoms: _85  and  _86
REMARK   35  A    between atoms: _89  and  _91
REMARK   36  A    between atoms: _91  and  _92
REMARK   37  A    between atoms: _91  and  _94
REMARK   38  A    between atoms: _94  and  _95
REMARK   39  A    between atoms: _98  and  _100
REMARK   40  A    between atoms: _100  and  _101
REMARK   41  A    between atoms: _100  and  _103
REMARK   42  A    between atoms: _103  and  _104
REMARK   43  A    between atoms: _107  and  _109
REMARK   44  A    between atoms: _109  and  _110
REMARK   45  A    between atoms: _109  and  _112
REMARK   46  A    between atoms: _115  and  _117
REMARK   47  A    between atoms: _117  and  _118
REMARK   48  A    between atoms: _120  and  _122
REMARK   49  A    between atoms: _122  and  _123
REMARK   50  A    between atoms: _122  and  _125
REMARK   51  A    between atoms: _125  and  _126
REMARK   52  A    between atoms: _126  and  _127
REMARK   53  A    between atoms: _127  and  _128
REMARK   54  A    between atoms: _137  and  _139
REMARK   55  A    between atoms: _139  and  _140
REMARK   56  A    between atoms: _143  and  _145
REMARK   57  A    between atoms: _145  and  _146
REMARK   58  A    between atoms: _148  and  _150
REMARK   59  A    between atoms: _150  and  _151
REMARK   60  A    between atoms: _150  and  _153
REMARK   61  A    between atoms: _153  and  _154
REMARK   62  A    between atoms: _156  and  _158
REMARK   63  A    between atoms: _158  and  _159
REMARK   64  A    between atoms: _161  and  _163
REMARK   65  A    between atoms: _163  and  _164
REMARK   66  A    between atoms: _163  and  _166
REMARK   67  A    between atoms: _166  and  _167
REMARK   68  A    between atoms: _167  and  _168
REMARK   69  A    between atoms: _168  and  _169
REMARK   70  A    between atoms: _169  and  _170
REMARK   71  A    between atoms: _174  and  _176
REMARK   72  A    between atoms: _176  and  _177
REMARK   73  A    between atoms: _176  and  _179
REMARK   74  A    between atoms: _179  and  _180
REMARK   75  A    between atoms: _182  and  _184
REMARK   76  A    between atoms: _184  and  _185
REMARK   77  A    between atoms: _184  and  _187
REMARK   78  A    between atoms: _187  and  _188
REMARK   79  A    between atoms: _191  and  _193
REMARK   80  A    between atoms: _193  and  _194
REMARK   81  A    between atoms: _193  and  _196
REMARK   82  A    between atoms: _196  and  _197
REMARK   83  A    between atoms: _200  and  _202
REMARK   84  A    between atoms: _202  and  _203
REMARK   85  A    between atoms: _202  and  _205
REMARK   86  A    between atoms: _205  and  _206
REMARK   87  A    between atoms: _209  and  _211
REMARK   88  A    between atoms: _211  and  _212
REMARK   89  A    between atoms: _211  and  _214
REMARK   90  A    between atoms: _214  and  _215
REMARK   91  A    between atoms: _215  and  _216
REMARK   92  A    between atoms: _216  and  _217
REMARK   93  A    between atoms: _217  and  _218
REMARK   94  A    between atoms: _222  and  _224
REMARK   95  A    between atoms: _224  and  _225
REMARK   96  A    between atoms: _224  and  _227
REMARK   97  A    between atoms: _227  and  _228
REMARK   98  A    between atoms: _233  and  _234
REMARK   99  A    between atoms: _236  and  _238
REMARK  100  A    between atoms: _238  and  _239
REMARK  101  A    between atoms: _238  and  _241
REMARK  102  A    between atoms: _241  and  _242
REMARK  103  A    between atoms: _242  and  _243
REMARK  104  A    between atoms: _246  and  _248
REMARK  105  A    between atoms: _248  and  _249
REMARK  106  A    between atoms: _248  and  _251
REMARK  107  A    between atoms: _251  and  _252
REMARK  108  A    between atoms: _255  and  _257
REMARK  109  A    between atoms: _257  and  _258
REMARK  110  A    between atoms: _257  and  _260
REMARK  111  A    between atoms: _260  and  _261
REMARK  112  A    between atoms: _261  and  _262
REMARK  113  A    between atoms: _264  and  _266
REMARK  114  A    between atoms: _266  and  _267
REMARK  115  A    between atoms: _266  and  _269
REMARK  116  A    between atoms: _269  and  _270
REMARK  117  A    between atoms: _270  and  _271
REMARK  118  A    between atoms: _274  and  _276
REMARK  119  A    between atoms: _276  and  _277
REMARK  120  A    between atoms: _276  and  _279
REMARK  121  A    between atoms: _279  and  _280
REMARK  122  A    between atoms: _280  and  _281
REMARK  123  A    between atoms: _281  and  _282
REMARK  124  A    between atoms: _282  and  _283
REMARK  125  A    between atoms: _287  and  _289
REMARK  126  A    between atoms: _289  and  _290
REMARK                            x       y       z     vdW  Elec       q    Type
REMARK                         _______ _______ _______ _____ _____    ______ ____
ROOT
ATOM      1  CA  GLU A   1      17.351   0.404  23.575  0.00  0.00    +0.134 C 
ENDROOT
BRANCH   1   2
ATOM      2  N   GLU A   1      18.232   1.055  22.610  0.00  0.00    -0.239 NA
ATOM      3  H   GLU A   1      19.175   1.368  22.919  0.00  0.00    +0.142 HD
ENDBRANCH   1   2
BRANCH   1   4
ATOM      4  C   GLU A   1      15.965   1.058  23.591  0.00  0.00    +0.224 C 
ATOM      5  O   GLU A   1      15.843   2.284  23.548  0.00  0.00    -0.287 OA
ENDBRANCH   1   4
BRANCH   1   6
ATOM      6  CB  GLU A   1      17.992   0.421  24.967  0.00  0.00    +0.037 C 
BRANCH   6   7
ATOM      7  CG  GLU A   1      17.142  -0.168  26.088  0.00  0.00    +0.116 C 
BRANCH   7   8
ATOM      8  CD  GLU A   1      17.826  -0.127  27.444  0.00  0.00    +0.365 C 
ATOM      9  OE2 GLU A   1      17.120  -0.232  28.471  0.00  0.00    -0.246 OA
ATOM     10  OE1 GLU A   1      19.066  -0.001  27.490  0.00  0.00    -0.246 OA
ENDBRANCH   7   8
ENDBRANCH   6   7
ENDBRANCH   1   6
TORSDOF 5
REMARK  Name = ../refined-set-2016/3b5j/3b5j_pocket.pdb
REMARK  126 active torsions:
REMARK  status: ('A' for Active; 'I' for Inactive)
REMARK    1  A    between atoms: _1  and  _3
REMARK    2  A    between atoms: _3  and  _4
REMARK    3  A    between atoms: _3  and  _6
REMARK    4  A    between atoms: _6  and  _7
REMARK    5  A    between atoms: _13  and  _15
REMARK    6  A    between atoms: _15  and  _16
REMARK    7  A    between atoms: _15  and  _18
REMARK    8  A    between atoms: _18  and  _19
REMARK    9  A    between atoms: _19  and  _20
REMARK   10  A    between atoms: _20  and  _21
REMARK   11  A    between atoms: _30  and  _32
REMARK   12  A    between atoms: _32  and  _33
REMARK   13  A    between atoms: _32  and  _35
REMARK   14  A    between atoms: _35  and  _36
REMARK   15  A    between atoms: _41  and  _42
REMARK   16  A    between atoms: _44  and  _46
REMARK   17  A    between atoms: _46  and  _47
REMARK   18  A    between atoms: _46  and  _49
REMARK   19  A    between atoms: _49  and  _50
REMARK   20  A    between atoms: _50  and  _51
REMARK   21  A    between atoms: _51  and  _52
REMARK   22  A    between atoms: _52  and  _53
REMARK   23  A    between atoms: _57  and  _59
REMARK   24  A    between atoms: _59  and  _60
REMARK   25  A    between atoms: _59  and  _62
REMARK   26  A    between atoms: _62  and  _63
REMARK   27  A    between atoms: _66  and  _67
REMARK   28  A    between atoms: _72  and  _74
REMARK   29  A    between atoms: _74  and  _75
REMARK   30  A    between atoms: _74  and  _77
REMARK   31  A    between atoms: _80  and  _82
REMARK   32  A    between atoms: _82  and  _83
REMARK   33  A    between atoms: _82  and  _85
REMARK   34  A    between atoms: _85  and  _86
REMARK   35  A    between atoms: _89  and  _91
REMARK   36  A    between atoms: _91  and  _92
REMARK   37  A    between atoms: _91  and  _94
REMARK   38  A    between atoms: _94  and  _95
REMARK   39  A    between atoms: _98  and  _100
REMARK   40  A    between atoms: _100  and  _101
REMARK   41  A    between atoms: _100  and  _103
REMARK   42  A    between atoms: _103  and  _104
REMARK   43  A    between atoms: _107  and  _109
REMARK   44  A    between atoms: _109  and  _110
REMARK   45  A    between atoms: _109  and  _112
REMARK   46  A    between atoms: _115  and  _117
REMARK   47  A    between atoms: _117  and  _118
REMARK   48  A    between atoms: _120  and  _122
REMARK   49  A    between atoms: _122  and  _123
REMARK   50  A    between atoms: _122  and  _125
REMARK   51  A    between atoms: _125  and  _126
REMARK   52  A    between atoms: _126  and  _127
REMARK   53  A    between atoms: _127  and  _128
REMARK   54  A    between atoms: _137  and  _139
REMARK   55  A    between atoms: _139  and  _140
REMARK   56  A    between atoms: _143  and  _145
REMARK   57  A    between atoms: _145  and  _146
REMARK   58  A    between atoms: _148  and  _150
REMARK   59  A    between atoms: _150  and  _151
REMARK   60  A    between atoms: _150  and  _153
REMARK   61  A    between atoms: _153  and  _154
REMARK   62  A    between atoms: _156  and  _158
REMARK   63  A    between atoms: _158  and  _159
REMARK   64  A    between atoms: _161  and  _163
REMARK   65  A    between atoms: _163  and  _164
REMARK   66  A    between atoms: _163  and  _166
REMARK   67  A    between atoms: _166  and  _167
REMARK   68  A    between atoms: _167  and  _168
REMARK   69  A    between atoms: _168  and  _169
REMARK   70  A    between atoms: _169  and  _170
REMARK   71  A    between atoms: _174  and  _176
REMARK   72  A    between atoms: _176  and  _177
REMARK   73  A    between atoms: _176  and  _179
REMARK   74  A    between atoms: _179  and  _180
REMARK   75  A    between atoms: _182  and  _184
REMARK   76  A    between atoms: _184  and  _185
REMARK   77  A    between atoms: _184  and  _187
REMARK   78  A    between atoms: _187  and  _188
REMARK   79  A    between atoms: _191  and  _193
REMARK   80  A    between atoms: _193  and  _194
REMARK   81  A    between atoms: _193  and  _196
REMARK   82  A    between atoms: _196  and  _197
REMARK   83  A    between atoms: _200  and  _202
REMARK   84  A    between atoms: _202  and  _203
REMARK   85  A    between atoms: _202  and  _205
REMARK   86  A    between atoms: _205  and  _206
REMARK   87  A    between atoms: _209  and  _211
REMARK   88  A    between atoms: _211  and  _212
REMARK   89  A    between atoms: _211  and  _214
REMARK   90  A    between atoms: _214  and  _215
REMARK   91  A    between atoms: _215  and  _216
REMARK   92  A    between atoms: _216  and  _217
REMARK   93  A    between atoms: _217  and  _218
REMARK   94  A    between atoms: _222  and  _224
REMARK   95  A    between atoms: _224  and  _225
REMARK   96  A    between atoms: _224  and  _227
REMARK   97  A    between atoms: _227  and  _228
REMARK   98  A    between atoms: _233  and  _234
REMARK   99  A    between atoms: _236  and  _238
REMARK  100  A    between atoms: _238  and  _239
REMARK  101  A    between atoms: _238  and  _241
REMARK  102  A    between atoms: _241  and  _242
REMARK  103  A    between atoms: _242  and  _243
REMARK  104  A    between atoms: _246  and  _248
REMARK  105  A    between atoms: _248  and  _249
REMARK  106  A    between atoms: _248  and  _251
REMARK  107  A    between atoms: _251  and  _252
REMARK  108  A    between atoms: _255  and  _257
REMARK  109  A    between atoms: _257  and  _258
REMARK  110  A    between atoms: _257  and  _260
REMARK  111  A    between atoms: _260  and  _261
REMARK  112  A    between atoms: _261  and  _262
REMARK  113  A    between atoms: _264  and  _266
REMARK  114  A    between atoms: _266  and  _267
REMARK  115  A    between atoms: _266  and  _269
REMARK  116  A    between atoms: _269  and  _270
REMARK  117  A    between atoms: _270  and  _271
REMARK  118  A    between atoms: _274  and  _276
REMARK  119  A    between atoms: _276  and  _277
REMARK  120  A    between atoms: _276  and  _279
REMARK  121  A    between atoms: _279  and  _280
REMARK  122  A    between atoms: _280  and  _281
REMARK  123  A    between atoms: _281  and  _282
REMARK  124  A    between atoms: _282  and  _283
REMARK  125  A    between atoms: _287  and  _289
REMARK  126  A    between atoms: _289  and  _290
REMARK                            x       y       z     vdW  Elec       q    Type
REMARK                         _______ _______ _______ _____ _____    ______ ____
ROOT
ATOM      1  CA  ILE A   1      20.342  -3.188  22.553  0.00  0.00    +0.133 C 
ENDROOT
BRANCH   1   2
ATOM      2  N   ILE A   1      20.213  -3.328  21.114  0.00  0.00    -0.239 NA
ATOM      3  H   ILE A   1      20.047  -2.489  20.522  0.00  0.00    +0.142 HD
ENDBRANCH   1   2
BRANCH   1   4
ATOM      4  C   ILE A   1      18.970  -3.463  23.159  0.00  0.00    +0.224 C 
ATOM      5  O   ILE A   1      18.014  -2.706  22.948  0.00  0.00    -0.287 OA
ENDBRANCH   1   4
BRANCH   1   6
ATOM      6  CB  ILE A   1      20.872  -1.802  22.970  0.00  0.00    +0.023 C 
ATOM      7  CG2 ILE A   1      20.882  -1.689  24.493  0.00  0.00    +0.002 C 
BRANCH   6   8
ATOM      8  CG1 ILE A   1      22.277  -1.585  22.401  0.00  0.00    +0.002 C 
ATOM      9  CD1 ILE A   1      22.826  -0.195  22.645  0.00  0.00    +0.000 C 
ENDBRANCH   6   8
ENDBRANCH   1   6
TORSDOF 4
REMARK  Name = ../refined-set-2016/3b5j/3b5j_pocket.pdb
REMARK  126 active torsions:
REMARK  status: ('A' for Active; 'I' for Inactive)
REMARK    1  A    between atoms: _1  and  _3
REMARK    2  A    between atoms: _3  and  _4
REMARK    3  A    between atoms: _3  and  _6
REMARK    4  A    between atoms: _6  and  _7
REMARK    5  A    between atoms: _13  and  _15
REMARK    6  A    between atoms: _15  and  _16
REMARK    7  A    between atoms: _15  and  _18
REMARK    8  A    between atoms: _18  and  _19
REMARK    9  A    between atoms: _19  and  _20
REMARK   10  A    between atoms: _20  and  _21
REMARK   11  A    between atoms: _30  and  _32
REMARK   12  A    between atoms: _32  and  _33
REMARK   13  A    between atoms: _32  and  _35
REMARK   14  A    between atoms: _35  and  _36
REMARK   15  A    between atoms: _41  and  _42
REMARK   16  A    between atoms: _44  and  _46
REMARK   17  A    between atoms: _46  and  _47
REMARK   18  A    between atoms: _46  and  _49
REMARK   19  A    between atoms: _49  and  _50
REMARK   20  A    between atoms: _50  and  _51
REMARK   21  A    between atoms: _51  and  _52
REMARK   22  A    between atoms: _52  and  _53
REMARK   23  A    between atoms: _57  and  _59
REMARK   24  A    between atoms: _59  and  _60
REMARK   25  A    between atoms: _59  and  _62
REMARK   26  A    between atoms: _62  and  _63
REMARK   27  A    between atoms: _66  and  _67
REMARK   28  A    between atoms: _72  and  _74
REMARK   29  A    between atoms: _74  and  _75
REMARK   30  A    between atoms: _74  and  _77
REMARK   31  A    between atoms: _80  and  _82
REMARK   32  A    between atoms: _82  and  _83
REMARK   33  A    between atoms: _82  and  _85
REMARK   34  A    between atoms: _85  and  _86
REMARK   35  A    between atoms: _89  and  _91
REMARK   36  A    between atoms: _91  and  _92
REMARK   37  A    between atoms: _91  and  _94
REMARK   38  A    between atoms: _94  and  _95
REMARK   39  A    between atoms: _98  and  _100
REMARK   40  A    between atoms: _100  and  _101
REMARK   41  A    between atoms: _100  and  _103
REMARK   42  A    between atoms: _103  and  _104
REMARK   43  A    between atoms: _107  and  _109
REMARK   44  A    between atoms: _109  and  _110
REMARK   45  A    between atoms: _109  and  _112
REMARK   46  A    between atoms: _115  and  _117
REMARK   47  A    between atoms: _117  and  _118
REMARK   48  A    between atoms: _120  and  _122
REMARK   49  A    between atoms: _122  and  _123
REMARK   50  A    between atoms: _122  and  _125
REMARK   51  A    between atoms: _125  and  _126
REMARK   52  A    between atoms: _126  and  _127
REMARK   53  A    between atoms: _127  and  _128
REMARK   54  A    between atoms: _137  and  _139
REMARK   55  A    between atoms: _139  and  _140
REMARK   56  A    between atoms: _143  and  _145
REMARK   57  A    between atoms: _145  and  _146
REMARK   58  A    between atoms: _148  and  _150
REMARK   59  A    between atoms: _150  and  _151
REMARK   60  A    between atoms: _150  and  _153
REMARK   61  A    between atoms: _153  and  _154
REMARK   62  A    between atoms: _156  and  _158
REMARK   63  A    between atoms: _158  and  _159
REMARK   64  A    between atoms: _161  and  _163
REMARK   65  A    between atoms: _163  and  _164
REMARK   66  A    between atoms: _163  and  _166
REMARK   67  A    between atoms: _166  and  _167
REMARK   68  A    between atoms: _167  and  _168
REMARK   69  A    between atoms: _168  and  _169
REMARK   70  A    between atoms: _169  and  _170
REMARK   71  A    between atoms: _174  and  _176
REMARK   72  A    between atoms: _176  and  _177
REMARK   73  A    between atoms: _176  and  _179
REMARK   74  A    between atoms: _179  and  _180
REMARK   75  A    between atoms: _182  and  _184
REMARK   76  A    between atoms: _184  and  _185
REMARK   77  A    between atoms: _184  and  _187
REMARK   78  A    between atoms: _187  and  _188
REMARK   79  A    between atoms: _191  and  _193
REMARK   80  A    between atoms: _193  and  _194
REMARK   81  A    between atoms: _193  and  _196
REMARK   82  A    between atoms: _196  and  _197
REMARK   83  A    between atoms: _200  and  _202
REMARK   84  A    between atoms: _202  and  _203
REMARK   85  A    between atoms: _202  and  _205
REMARK   86  A    between atoms: _205  and  _206
REMARK   87  A    between atoms: _209  and  _211
REMARK   88  A    between atoms: _211  and  _212
REMARK   89  A    between atoms: _211  and  _214
REMARK   90  A    between atoms: _214  and  _215
REMARK   91  A    between atoms: _215  and  _216
REMARK   92  A    between atoms: _216  and  _217
REMARK   93  A    between atoms: _217  and  _218
REMARK   94  A    between atoms: _222  and  _224
REMARK   95  A    between atoms: _224  and  _225
REMARK   96  A    between atoms: _224  and  _227
REMARK   97  A    between atoms: _227  and  _228
REMARK   98  A    between atoms: _233  and  _234
REMARK   99  A    between atoms: _236  and  _238
REMARK  100  A    between atoms: _238  and  _239
REMARK  101  A    between atoms: _238  and  _241
REMARK  102  A    between atoms: _241  and  _242
REMARK  103  A    between atoms: _242  and  _243
REMARK  104  A    between atoms: _246  and  _248
REMARK  105  A    between atoms: _248  and  _249
REMARK  106  A    between atoms: _248  and  _251
REMARK  107  A    between atoms: _251  and  _252
REMARK  108  A    between atoms: _255  and  _257
REMARK  109  A    between atoms: _257  and  _258
REMARK  110  A    between atoms: _257  and  _260
REMARK  111  A    between atoms: _260  and  _261
REMARK  112  A    between atoms: _261  and  _262
REMARK  113  A    between atoms: _264  and  _266
REMARK  114  A    between atoms: _266  and  _267
REMARK  115  A    between atoms: _266  and  _269
REMARK  116  A    between atoms: _269  and  _270
REMARK  117  A    between atoms: _270  and  _271
REMARK  118  A    between atoms: _274  and  _276
REMARK  119  A    between atoms: _276  and  _277
REMARK  120  A    between atoms: _276  and  _279
REMARK  121  A    between atoms: _279  and  _280
REMARK  122  A    between atoms: _280  and  _281
REMARK  123  A    between atoms: _281  and  _282
REMARK  124  A    between atoms: _282  and  _283
REMARK  125  A    between atoms: _287  and  _289
REMARK  126  A    between atoms: _289  and  _290
REMARK                            x       y       z     vdW  Elec       q    Type
REMARK                         _______ _______ _______ _____ _____    ______ ____
ROOT
ATOM      1  C   GLU A   2      29.313  -5.256  33.573  0.00  0.00    +0.241 C 
ATOM      2  N   LYS A   3      29.009  -4.104  34.171  0.00  0.00    -0.297 N 
ATOM      3  H   LYS A   3      28.006  -3.865  34.305  0.00  0.00    +0.150 HD
ATOM      4  O   GLU A   2      30.466  -5.613  33.308  0.00  0.00    -0.273 OA
ENDROOT
BRANCH   2   5
ATOM      5  CA  LYS A   3      30.023  -3.157  34.649  0.00  0.00    +0.149 C 
BRANCH   5   6
ATOM      6  C   LYS A   3      31.133  -2.939  33.613  0.00  0.00    +0.241 C 
ATOM      7  O   LYS A   3      32.327  -2.966  33.928  0.00  0.00    -0.273 OA
ATOM      8  N   GLY A   4      30.721  -2.749  32.363  0.00  0.00    -0.296 N 
ATOM      9  H   GLY A   4      29.715  -2.882  32.136  0.00  0.00    +0.150 HD
BRANCH   8  10
ATOM     10  CA  GLY A   4      31.639  -2.361  31.307  0.00  0.00    +0.163 C 
BRANCH  10  11
ATOM     11  C   GLY A   4      32.441  -3.497  30.729  0.00  0.00    +0.229 C 
ATOM     12  O   GLY A   4      33.378  -3.265  29.964  0.00  0.00    -0.286 OA
ENDBRANCH  10  11
ENDBRANCH   8  10
ENDBRANCH   5   6
BRANCH   5  13
ATOM     13  CB  LYS A   3      30.605  -3.612  35.996  0.00  0.00    +0.029 C 
BRANCH  13  14
ATOM     14  CG  LYS A   3      29.605  -3.630  37.143  0.00  0.00    +0.000 C 
BRANCH  14  15
ATOM     15  CD  LYS A   3      30.206  -4.303  38.366  0.00  0.00    -0.024 C 
BRANCH  15  16
ATOM     16  CE  LYS A   3      29.163  -4.500  39.467  0.00  0.00    -0.086 C 
BRANCH  16  17
ATOM     17  NZ  LYS A   3      29.661  -5.424  40.523  0.00  0.00    +0.380 N 
ATOM     18  HZ1 LYS A   3      28.931  -5.537  41.255  0.00  0.00    -0.089 HD
ATOM     19  HZ2 LYS A   3      30.523  -5.029  40.949  0.00  0.00    -0.089 HD
ATOM     20  HZ3 LYS A   3      29.875  -6.349  40.099  0.00  0.00    -0.089 HD
ENDBRANCH  16  17
ENDBRANCH  15  16
ENDBRANCH  14  15
ENDBRANCH  13  14
ENDBRANCH   5  13
ENDBRANCH   2   5
BRANCH   1  21
ATOM     21  CA  GLU A   2      28.135  -6.133  33.191  0.00  0.00    +0.149 C 
BRANCH  21  23
ATOM     22  C   MET A   1      27.206  -6.646  30.989  0.00  0.00    +0.238 C 
ATOM     23  N   GLU A   2      28.256  -6.465  31.783  0.00  0.00    -0.297 N 
ATOM     24  H   GLU A   2      29.208  -6.566  31.377  0.00  0.00    +0.150 HD
ATOM     25  O   MET A   1      26.046  -6.680  31.389  0.00  0.00    -0.274 OA
BRANCH  22  26
ATOM     26  CA  MET A   1      27.527  -6.875  29.525  0.00  0.00    +0.146 C 
BRANCH  26  27
ATOM     27  N   MET A   1      26.633  -7.849  28.921  0.00  0.00    -0.238 NA
ATOM     28  H   MET A   1      25.673  -7.561  28.645  0.00  0.00    +0.142 HD
ENDBRANCH  26  27
BRANCH  26  29
ATOM     29  CB  MET A   1      27.497  -5.564  28.750  0.00  0.00    +0.038 C 
BRANCH  29  30
ATOM     30  CG  MET A   1      28.104  -5.684  27.365  0.00  0.00    +0.060 C 
BRANCH  30  31
ATOM     31  SD  MET A   1      28.270  -4.096  26.605  0.00  0.00    -0.139 S 
ATOM     32  CE  MET A   1      29.696  -3.466  27.501  0.00  0.00    +0.069 C 
ENDBRANCH  30  31
ENDBRANCH  29  30
ENDBRANCH  26  29
ENDBRANCH  22  26
ENDBRANCH  21  23
BRANCH  21  33
ATOM     33  CB  GLU A   2      28.084  -7.395  34.060  0.00  0.00    +0.041 C 
BRANCH  33  34
ATOM     34  CG  GLU A   2      28.209  -7.158  35.590  0.00  0.00    +0.116 C 
BRANCH  34  35
ATOM     35  CD  GLU A   2      27.005  -6.455  36.233  0.00  0.00    +0.365 C 
ATOM     36  OE2 GLU A   2      27.000  -6.318  37.475  0.00  0.00    -0.246 OA
ATOM     37  OE1 GLU A   2      26.067  -6.040  35.524  0.00  0.00    -0.246 OA
ENDBRANCH  34  35
ENDBRANCH  33  34
ENDBRANCH  21  33
ENDBRANCH   1  21
TORSDOF 19
REMARK  Name = ../refined-set-2016/3b5j/3b5j_pocket.pdb
REMARK  126 active torsions:
REMARK  status: ('A' for Active; 'I' for Inactive)
REMARK    1  A    between atoms: _1  and  _3
REMARK    2  A    between atoms: _3  and  _4
REMARK    3  A    between atoms: _3  and  _6
REMARK    4  A    between atoms: _6  and  _7
REMARK    5  A    between atoms: _13  and  _15
REMARK    6  A    between atoms: _15  and  _16
REMARK    7  A    between atoms: _15  and  _18
REMARK    8  A    between atoms: _18  and  _19
REMARK    9  A    between atoms: _19  and  _20
REMARK   10  A    between atoms: _20  and  _21
REMARK   11  A    between atoms: _30  and  _32
REMARK   12  A    between atoms: _32  and  _33
REMARK   13  A    between atoms: _32  and  _35
REMARK   14  A    between atoms: _35  and  _36
REMARK   15  A    between atoms: _41  and  _42
REMARK   16  A    between atoms: _44  and  _46
REMARK   17  A    between atoms: _46  and  _47
REMARK   18  A    between atoms: _46  and  _49
REMARK   19  A    between atoms: _49  and  _50
REMARK   20  A    between atoms: _50  and  _51
REMARK   21  A    between atoms: _51  and  _52
REMARK   22  A    between atoms: _52  and  _53
REMARK   23  A    between atoms: _57  and  _59
REMARK   24  A    between atoms: _59  and  _60
REMARK   25  A    between atoms: _59  and  _62
REMARK   26  A    between atoms: _62  and  _63
REMARK   27  A    between atoms: _66  and  _67
REMARK   28  A    between atoms: _72  and  _74
REMARK   29  A    between atoms: _74  and  _75
REMARK   30  A    between atoms: _74  and  _77
REMARK   31  A    between atoms: _80  and  _82
REMARK   32  A    between atoms: _82  and  _83
REMARK   33  A    between atoms: _82  and  _85
REMARK   34  A    between atoms: _85  and  _86
REMARK   35  A    between atoms: _89  and  _91
REMARK   36  A    between atoms: _91  and  _92
REMARK   37  A    between atoms: _91  and  _94
REMARK   38  A    between atoms: _94  and  _95
REMARK   39  A    between atoms: _98  and  _100
REMARK   40  A    between atoms: _100  and  _101
REMARK   41  A    between atoms: _100  and  _103
REMARK   42  A    between atoms: _103  and  _104
REMARK   43  A    between atoms: _107  and  _109
REMARK   44  A    between atoms: _109  and  _110
REMARK   45  A    between atoms: _109  and  _112
REMARK   46  A    between atoms: _115  and  _117
REMARK   47  A    between atoms: _117  and  _118
REMARK   48  A    between atoms: _120  and  _122
REMARK   49  A    between atoms: _122  and  _123
REMARK   50  A    between atoms: _122  and  _125
REMARK   51  A    between atoms: _125  and  _126
REMARK   52  A    between atoms: _126  and  _127
REMARK   53  A    between atoms: _127  and  _128
REMARK   54  A    between atoms: _137  and  _139
REMARK   55  A    between atoms: _139  and  _140
REMARK   56  A    between atoms: _143  and  _145
REMARK   57  A    between atoms: _145  and  _146
REMARK   58  A    between atoms: _148  and  _150
REMARK   59  A    between atoms: _150  and  _151
REMARK   60  A    between atoms: _150  and  _153
REMARK   61  A    between atoms: _153  and  _154
REMARK   62  A    between atoms: _156  and  _158
REMARK   63  A    between atoms: _158  and  _159
REMARK   64  A    between atoms: _161  and  _163
REMARK   65  A    between atoms: _163  and  _164
REMARK   66  A    between atoms: _163  and  _166
REMARK   67  A    between atoms: _166  and  _167
REMARK   68  A    between atoms: _167  and  _168
REMARK   69  A    between atoms: _168  and  _169
REMARK   70  A    between atoms: _169  and  _170
REMARK   71  A    between atoms: _174  and  _176
REMARK   72  A    between atoms: _176  and  _177
REMARK   73  A    between atoms: _176  and  _179
REMARK   74  A    between atoms: _179  and  _180
REMARK   75  A    between atoms: _182  and  _184
REMARK   76  A    between atoms: _184  and  _185
REMARK   77  A    between atoms: _184  and  _187
REMARK   78  A    between atoms: _187  and  _188
REMARK   79  A    between atoms: _191  and  _193
REMARK   80  A    between atoms: _193  and  _194
REMARK   81  A    between atoms: _193  and  _196
REMARK   82  A    between atoms: _196  and  _197
REMARK   83  A    between atoms: _200  and  _202
REMARK   84  A    between atoms: _202  and  _203
REMARK   85  A    between atoms: _202  and  _205
REMARK   86  A    between atoms: _205  and  _206
REMARK   87  A    between atoms: _209  and  _211
REMARK   88  A    between atoms: _211  and  _212
REMARK   89  A    between atoms: _211  and  _214
REMARK   90  A    between atoms: _214  and  _215
REMARK   91  A    between atoms: _215  and  _216
REMARK   92  A    between atoms: _216  and  _217
REMARK   93  A    between atoms: _217  and  _218
REMARK   94  A    between atoms: _222  and  _224
REMARK   95  A    between atoms: _224  and  _225
REMARK   96  A    between atoms: _224  and  _227
REMARK   97  A    between atoms: _227  and  _228
REMARK   98  A    between atoms: _233  and  _234
REMARK   99  A    between atoms: _236  and  _238
REMARK  100  A    between atoms: _238  and  _239
REMARK  101  A    between atoms: _238  and  _241
REMARK  102  A    between atoms: _241  and  _242
REMARK  103  A    between atoms: _242  and  _243
REMARK  104  A    between atoms: _246  and  _248
REMARK  105  A    between atoms: _248  and  _249
REMARK  106  A    between atoms: _248  and  _251
REMARK  107  A    between atoms: _251  and  _252
REMARK  108  A    between atoms: _255  and  _257
REMARK  109  A    between atoms: _257  and  _258
REMARK  110  A    between atoms: _257  and  _260
REMARK  111  A    between atoms: _260  and  _261
REMARK  112  A    between atoms: _261  and  _262
REMARK  113  A    between atoms: _264  and  _266
REMARK  114  A    between atoms: _266  and  _267
REMARK  115  A    between atoms: _266  and  _269
REMARK  116  A    between atoms: _269  and  _270
REMARK  117  A    between atoms: _270  and  _271
REMARK  118  A    between atoms: _274  and  _276
REMARK  119  A    between atoms: _276  and  _277
REMARK  120  A    between atoms: _276  and  _279
REMARK  121  A    between atoms: _279  and  _280
REMARK  122  A    between atoms: _280  and  _281
REMARK  123  A    between atoms: _281  and  _282
REMARK  124  A    between atoms: _282  and  _283
REMARK  125  A    between atoms: _287  and  _289
REMARK  126  A    between atoms: _289  and  _290
REMARK                            x       y       z     vdW  Elec       q    Type
REMARK                         _______ _______ _______ _____ _____    ______ ____
ROOT
ATOM      1  O   HOH     1      24.547  -6.789  33.527  0.00  0.00    +0.000 OA
ENDROOT
TORSDOF 0
REMARK  Name = ../refined-set-2016/3b5j/3b5j_pocket.pdb
REMARK  126 active torsions:
REMARK  status: ('A' for Active; 'I' for Inactive)
REMARK    1  A    between atoms: _1  and  _3
REMARK    2  A    between atoms: _3  and  _4
REMARK    3  A    between atoms: _3  and  _6
REMARK    4  A    between atoms: _6  and  _7
REMARK    5  A    between atoms: _13  and  _15
REMARK    6  A    between atoms: _15  and  _16
REMARK    7  A    between atoms: _15  and  _18
REMARK    8  A    between atoms: _18  and  _19
REMARK    9  A    between atoms: _19  and  _20
REMARK   10  A    between atoms: _20  and  _21
REMARK   11  A    between atoms: _30  and  _32
REMARK   12  A    between atoms: _32  and  _33
REMARK   13  A    between atoms: _32  and  _35
REMARK   14  A    between atoms: _35  and  _36
REMARK   15  A    between atoms: _41  and  _42
REMARK   16  A    between atoms: _44  and  _46
REMARK   17  A    between atoms: _46  and  _47
REMARK   18  A    between atoms: _46  and  _49
REMARK   19  A    between atoms: _49  and  _50
REMARK   20  A    between atoms: _50  and  _51
REMARK   21  A    between atoms: _51  and  _52
REMARK   22  A    between atoms: _52  and  _53
REMARK   23  A    between atoms: _57  and  _59
REMARK   24  A    between atoms: _59  and  _60
REMARK   25  A    between atoms: _59  and  _62
REMARK   26  A    between atoms: _62  and  _63
REMARK   27  A    between atoms: _66  and  _67
REMARK   28  A    between atoms: _72  and  _74
REMARK   29  A    between atoms: _74  and  _75
REMARK   30  A    between atoms: _74  and  _77
REMARK   31  A    between atoms: _80  and  _82
REMARK   32  A    between atoms: _82  and  _83
REMARK   33  A    between atoms: _82  and  _85
REMARK   34  A    between atoms: _85  and  _86
REMARK   35  A    between atoms: _89  and  _91
REMARK   36  A    between atoms: _91  and  _92
REMARK   37  A    between atoms: _91  and  _94
REMARK   38  A    between atoms: _94  and  _95
REMARK   39  A    between atoms: _98  and  _100
REMARK   40  A    between atoms: _100  and  _101
REMARK   41  A    between atoms: _100  and  _103
REMARK   42  A    between atoms: _103  and  _104
REMARK   43  A    between atoms: _107  and  _109
REMARK   44  A    between atoms: _109  and  _110
REMARK   45  A    between atoms: _109  and  _112
REMARK   46  A    between atoms: _115  and  _117
REMARK   47  A    between atoms: _117  and  _118
REMARK   48  A    between atoms: _120  and  _122
REMARK   49  A    between atoms: _122  and  _123
REMARK   50  A    between atoms: _122  and  _125
REMARK   51  A    between atoms: _125  and  _126
REMARK   52  A    between atoms: _126  and  _127
REMARK   53  A    between atoms: _127  and  _128
REMARK   54  A    between atoms: _137  and  _139
REMARK   55  A    between atoms: _139  and  _140
REMARK   56  A    between atoms: _143  and  _145
REMARK   57  A    between atoms: _145  and  _146
REMARK   58  A    between atoms: _148  and  _150
REMARK   59  A    between atoms: _150  and  _151
REMARK   60  A    between atoms: _150  and  _153
REMARK   61  A    between atoms: _153  and  _154
REMARK   62  A    between atoms: _156  and  _158
REMARK   63  A    between atoms: _158  and  _159
REMARK   64  A    between atoms: _161  and  _163
REMARK   65  A    between atoms: _163  and  _164
REMARK   66  A    between atoms: _163  and  _166
REMARK   67  A    between atoms: _166  and  _167
REMARK   68  A    between atoms: _167  and  _168
REMARK   69  A    between atoms: _168  and  _169
REMARK   70  A    between atoms: _169  and  _170
REMARK   71  A    between atoms: _174  and  _176
REMARK   72  A    between atoms: _176  and  _177
REMARK   73  A    between atoms: _176  and  _179
REMARK   74  A    between atoms: _179  and  _180
REMARK   75  A    between atoms: _182  and  _184
REMARK   76  A    between atoms: _184  and  _185
REMARK   77  A    between atoms: _184  and  _187
REMARK   78  A    between atoms: _187  and  _188
REMARK   79  A    between atoms: _191  and  _193
REMARK   80  A    between atoms: _193  and  _194
REMARK   81  A    between atoms: _193  and  _196
REMARK   82  A    between atoms: _196  and  _197
REMARK   83  A    between atoms: _200  and  _202
REMARK   84  A    between atoms: _202  and  _203
REMARK   85  A    between atoms: _202  and  _205
REMARK   86  A    between atoms: _205  and  _206
REMARK   87  A    between atoms: _209  and  _211
REMARK   88  A    between atoms: _211  and  _212
REMARK   89  A    between atoms: _211  and  _214
REMARK   90  A    between atoms: _214  and  _215
REMARK   91  A    between atoms: _215  and  _216
REMARK   92  A    between atoms: _216  and  _217
REMARK   93  A    between atoms: _217  and  _218
REMARK   94  A    between atoms: _222  and  _224
REMARK   95  A    between atoms: _224  and  _225
REMARK   96  A    between atoms: _224  and  _227
REMARK   97  A    between atoms: _227  and  _228
REMARK   98  A    between atoms: _233  and  _234
REMARK   99  A    between atoms: _236  and  _238
REMARK  100  A    between atoms: _238  and  _239
REMARK  101  A    between atoms: _238  and  _241
REMARK  102  A    between atoms: _241  and  _242
REMARK  103  A    between atoms: _242  and  _243
REMARK  104  A    between atoms: _246  and  _248
REMARK  105  A    between atoms: _248  and  _249
REMARK  106  A    between atoms: _248  and  _251
REMARK  107  A    between atoms: _251  and  _252
REMARK  108  A    between atoms: _255  and  _257
REMARK  109  A    between atoms: _257  and  _258
REMARK  110  A    between atoms: _257  and  _260
REMARK  111  A    between atoms: _260  and  _261
REMARK  112  A    between atoms: _261  and  _262
REMARK  113  A    between atoms: _264  and  _266
REMARK  114  A    between atoms: _266  and  _267
REMARK  115  A    between atoms: _266  and  _269
REMARK  116  A    between atoms: _269  and  _270
REMARK  117  A    between atoms: _270  and  _271
REMARK  118  A    between atoms: _274  and  _276
REMARK  119  A    between atoms: _276  and  _277
REMARK  120  A    between atoms: _276  and  _279
REMARK  121  A    between atoms: _279  and  _280
REMARK  122  A    between atoms: _280  and  _281
REMARK  123  A    between atoms: _281  and  _282
REMARK  124  A    between atoms: _282  and  _283
REMARK  125  A    between atoms: _287  and  _289
REMARK  126  A    between atoms: _289  and  _290
REMARK                            x       y       z     vdW  Elec       q    Type
REMARK                         _______ _______ _______ _____ _____    ______ ____
ROOT
ATOM      1  O   HOH     1      30.529  13.428  29.747  0.00  0.00    +0.000 OA
ENDROOT
TORSDOF 0
REMARK  Name = ../refined-set-2016/3b5j/3b5j_pocket.pdb
REMARK  126 active torsions:
REMARK  status: ('A' for Active; 'I' for Inactive)
REMARK    1  A    between atoms: _1  and  _3
REMARK    2  A    between atoms: _3  and  _4
REMARK    3  A    between atoms: _3  and  _6
REMARK    4  A    between atoms: _6  and  _7
REMARK    5  A    between atoms: _13  and  _15
REMARK    6  A    between atoms: _15  and  _16
REMARK    7  A    between atoms: _15  and  _18
REMARK    8  A    between atoms: _18  and  _19
REMARK    9  A    between atoms: _19  and  _20
REMARK   10  A    between atoms: _20  and  _21
REMARK   11  A    between atoms: _30  and  _32
REMARK   12  A    between atoms: _32  and  _33
REMARK   13  A    between atoms: _32  and  _35
REMARK   14  A    between atoms: _35  and  _36
REMARK   15  A    between atoms: _41  and  _42
REMARK   16  A    between atoms: _44  and  _46
REMARK   17  A    between atoms: _46  and  _47
REMARK   18  A    between atoms: _46  and  _49
REMARK   19  A    between atoms: _49  and  _50
REMARK   20  A    between atoms: _50  and  _51
REMARK   21  A    between atoms: _51  and  _52
REMARK   22  A    between atoms: _52  and  _53
REMARK   23  A    between atoms: _57  and  _59
REMARK   24  A    between atoms: _59  and  _60
REMARK   25  A    between atoms: _59  and  _62
REMARK   26  A    between atoms: _62  and  _63
REMARK   27  A    between atoms: _66  and  _67
REMARK   28  A    between atoms: _72  and  _74
REMARK   29  A    between atoms: _74  and  _75
REMARK   30  A    between atoms: _74  and  _77
REMARK   31  A    between atoms: _80  and  _82
REMARK   32  A    between atoms: _82  and  _83
REMARK   33  A    between atoms: _82  and  _85
REMARK   34  A    between atoms: _85  and  _86
REMARK   35  A    between atoms: _89  and  _91
REMARK   36  A    between atoms: _91  and  _92
REMARK   37  A    between atoms: _91  and  _94
REMARK   38  A    between atoms: _94  and  _95
REMARK   39  A    between atoms: _98  and  _100
REMARK   40  A    between atoms: _100  and  _101
REMARK   41  A    between atoms: _100  and  _103
REMARK   42  A    between atoms: _103  and  _104
REMARK   43  A    between atoms: _107  and  _109
REMARK   44  A    between atoms: _109  and  _110
REMARK   45  A    between atoms: _109  and  _112
REMARK   46  A    between atoms: _115  and  _117
REMARK   47  A    between atoms: _117  and  _118
REMARK   48  A    between atoms: _120  and  _122
REMARK   49  A    between atoms: _122  and  _123
REMARK   50  A    between atoms: _122  and  _125
REMARK   51  A    between atoms: _125  and  _126
REMARK   52  A    between atoms: _126  and  _127
REMARK   53  A    between atoms: _127  and  _128
REMARK   54  A    between atoms: _137  and  _139
REMARK   55  A    between atoms: _139  and  _140
REMARK   56  A    between atoms: _143  and  _145
REMARK   57  A    between atoms: _145  and  _146
REMARK   58  A    between atoms: _148  and  _150
REMARK   59  A    between atoms: _150  and  _151
REMARK   60  A    between atoms: _150  and  _153
REMARK   61  A    between atoms: _153  and  _154
REMARK   62  A    between atoms: _156  and  _158
REMARK   63  A    between atoms: _158  and  _159
REMARK   64  A    between atoms: _161  and  _163
REMARK   65  A    between atoms: _163  and  _164
REMARK   66  A    between atoms: _163  and  _166
REMARK   67  A    between atoms: _166  and  _167
REMARK   68  A    between atoms: _167  and  _168
REMARK   69  A    between atoms: _168  and  _169
REMARK   70  A    between atoms: _169  and  _170
REMARK   71  A    between atoms: _174  and  _176
REMARK   72  A    between atoms: _176  and  _177
REMARK   73  A    between atoms: _176  and  _179
REMARK   74  A    between atoms: _179  and  _180
REMARK   75  A    between atoms: _182  and  _184
REMARK   76  A    between atoms: _184  and  _185
REMARK   77  A    between atoms: _184  and  _187
REMARK   78  A    between atoms: _187  and  _188
REMARK   79  A    between atoms: _191  and  _193
REMARK   80  A    between atoms: _193  and  _194
REMARK   81  A    between atoms: _193  and  _196
REMARK   82  A    between atoms: _196  and  _197
REMARK   83  A    between atoms: _200  and  _202
REMARK   84  A    between atoms: _202  and  _203
REMARK   85  A    between atoms: _202  and  _205
REMARK   86  A    between atoms: _205  and  _206
REMARK   87  A    between atoms: _209  and  _211
REMARK   88  A    between atoms: _211  and  _212
REMARK   89  A    between atoms: _211  and  _214
REMARK   90  A    between atoms: _214  and  _215
REMARK   91  A    between atoms: _215  and  _216
REMARK   92  A    between atoms: _216  and  _217
REMARK   93  A    between atoms: _217  and  _218
REMARK   94  A    between atoms: _222  and  _224
REMARK   95  A    between atoms: _224  and  _225
REMARK   96  A    between atoms: _224  and  _227
REMARK   97  A    between atoms: _227  and  _228
REMARK   98  A    between atoms: _233  and  _234
REMARK   99  A    between atoms: _236  and  _238
REMARK  100  A    between atoms: _238  and  _239
REMARK  101  A    between atoms: _238  and  _241
REMARK  102  A    between atoms: _241  and  _242
REMARK  103  A    between atoms: _242  and  _243
REMARK  104  A    between atoms: _246  and  _248
REMARK  105  A    between atoms: _248  and  _249
REMARK  106  A    between atoms: _248  and  _251
REMARK  107  A    between atoms: _251  and  _252
REMARK  108  A    between atoms: _255  and  _257
REMARK  109  A    between atoms: _257  and  _258
REMARK  110  A    between atoms: _257  and  _260
REMARK  111  A    between atoms: _260  and  _261
REMARK  112  A    between atoms: _261  and  _262
REMARK  113  A    between atoms: _264  and  _266
REMARK  114  A    between atoms: _266  and  _267
REMARK  115  A    between atoms: _266  and  _269
REMARK  116  A    between atoms: _269  and  _270
REMARK  117  A    between atoms: _270  and  _271
REMARK  118  A    between atoms: _274  and  _276
REMARK  119  A    between atoms: _276  and  _277
REMARK  120  A    between atoms: _276  and  _279
REMARK  121  A    between atoms: _279  and  _280
REMARK  122  A    between atoms: _280  and  _281
REMARK  123  A    between atoms: _281  and  _282
REMARK  124  A    between atoms: _282  and  _283
REMARK  125  A    between atoms: _287  and  _289
REMARK  126  A    between atoms: _289  and  _290
REMARK                            x       y       z     vdW  Elec       q    Type
REMARK                         _______ _______ _______ _____ _____    ______ ____
ROOT
ATOM      1  O   HOH     1      24.268   6.384  27.037  0.00  0.00    +0.000 OA
ENDROOT
TORSDOF 0
REMARK  Name = ../refined-set-2016/3b5j/3b5j_pocket.pdb
REMARK  126 active torsions:
REMARK  status: ('A' for Active; 'I' for Inactive)
REMARK    1  A    between atoms: _1  and  _3
REMARK    2  A    between atoms: _3  and  _4
REMARK    3  A    between atoms: _3  and  _6
REMARK    4  A    between atoms: _6  and  _7
REMARK    5  A    between atoms: _13  and  _15
REMARK    6  A    between atoms: _15  and  _16
REMARK    7  A    between atoms: _15  and  _18
REMARK    8  A    between atoms: _18  and  _19
REMARK    9  A    between atoms: _19  and  _20
REMARK   10  A    between atoms: _20  and  _21
REMARK   11  A    between atoms: _30  and  _32
REMARK   12  A    between atoms: _32  and  _33
REMARK   13  A    between atoms: _32  and  _35
REMARK   14  A    between atoms: _35  and  _36
REMARK   15  A    between atoms: _41  and  _42
REMARK   16  A    between atoms: _44  and  _46
REMARK   17  A    between atoms: _46  and  _47
REMARK   18  A    between atoms: _46  and  _49
REMARK   19  A    between atoms: _49  and  _50
REMARK   20  A    between atoms: _50  and  _51
REMARK   21  A    between atoms: _51  and  _52
REMARK   22  A    between atoms: _52  and  _53
REMARK   23  A    between atoms: _57  and  _59
REMARK   24  A    between atoms: _59  and  _60
REMARK   25  A    between atoms: _59  and  _62
REMARK   26  A    between atoms: _62  and  _63
REMARK   27  A    between atoms: _66  and  _67
REMARK   28  A    between atoms: _72  and  _74
REMARK   29  A    between atoms: _74  and  _75
REMARK   30  A    between atoms: _74  and  _77
REMARK   31  A    between atoms: _80  and  _82
REMARK   32  A    between atoms: _82  and  _83
REMARK   33  A    between atoms: _82  and  _85
REMARK   34  A    between atoms: _85  and  _86
REMARK   35  A    between atoms: _89  and  _91
REMARK   36  A    between atoms: _91  and  _92
REMARK   37  A    between atoms: _91  and  _94
REMARK   38  A    between atoms: _94  and  _95
REMARK   39  A    between atoms: _98  and  _100
REMARK   40  A    between atoms: _100  and  _101
REMARK   41  A    between atoms: _100  and  _103
REMARK   42  A    between atoms: _103  and  _104
REMARK   43  A    between atoms: _107  and  _109
REMARK   44  A    between atoms: _109  and  _110
REMARK   45  A    between atoms: _109  and  _112
REMARK   46  A    between atoms: _115  and  _117
REMARK   47  A    between atoms: _117  and  _118
REMARK   48  A    between atoms: _120  and  _122
REMARK   49  A    between atoms: _122  and  _123
REMARK   50  A    between atoms: _122  and  _125
REMARK   51  A    between atoms: _125  and  _126
REMARK   52  A    between atoms: _126  and  _127
REMARK   53  A    between atoms: _127  and  _128
REMARK   54  A    between atoms: _137  and  _139
REMARK   55  A    between atoms: _139  and  _140
REMARK   56  A    between atoms: _143  and  _145
REMARK   57  A    between atoms: _145  and  _146
REMARK   58  A    between atoms: _148  and  _150
REMARK   59  A    between atoms: _150  and  _151
REMARK   60  A    between atoms: _150  and  _153
REMARK   61  A    between atoms: _153  and  _154
REMARK   62  A    between atoms: _156  and  _158
REMARK   63  A    between atoms: _158  and  _159
REMARK   64  A    between atoms: _161  and  _163
REMARK   65  A    between atoms: _163  and  _164
REMARK   66  A    between atoms: _163  and  _166
REMARK   67  A    between atoms: _166  and  _167
REMARK   68  A    between atoms: _167  and  _168
REMARK   69  A    between atoms: _168  and  _169
REMARK   70  A    between atoms: _169  and  _170
REMARK   71  A    between atoms: _174  and  _176
REMARK   72  A    between atoms: _176  and  _177
REMARK   73  A    between atoms: _176  and  _179
REMARK   74  A    between atoms: _179  and  _180
REMARK   75  A    between atoms: _182  and  _184
REMARK   76  A    between atoms: _184  and  _185
REMARK   77  A    between atoms: _184  and  _187
REMARK   78  A    between atoms: _187  and  _188
REMARK   79  A    between atoms: _191  and  _193
REMARK   80  A    between atoms: _193  and  _194
REMARK   81  A    between atoms: _193  and  _196
REMARK   82  A    between atoms: _196  and  _197
REMARK   83  A    between atoms: _200  and  _202
REMARK   84  A    between atoms: _202  and  _203
REMARK   85  A    between atoms: _202  and  _205
REMARK   86  A    between atoms: _205  and  _206
REMARK   87  A    between atoms: _209  and  _211
REMARK   88  A    between atoms: _211  and  _212
REMARK   89  A    between atoms: _211  and  _214
REMARK   90  A    between atoms: _214  and  _215
REMARK   91  A    between atoms: _215  and  _216
REMARK   92  A    between atoms: _216  and  _217
REMARK   93  A    between atoms: _217  and  _218
REMARK   94  A    between atoms: _222  and  _224
REMARK   95  A    between atoms: _224  and  _225
REMARK   96  A    between atoms: _224  and  _227
REMARK   97  A    between atoms: _227  and  _228
REMARK   98  A    between atoms: _233  and  _234
REMARK   99  A    between atoms: _236  and  _238
REMARK  100  A    between atoms: _238  and  _239
REMARK  101  A    between atoms: _238  and  _241
REMARK  102  A    between atoms: _241  and  _242
REMARK  103  A    between atoms: _242  and  _243
REMARK  104  A    between atoms: _246  and  _248
REMARK  105  A    between atoms: _248  and  _249
REMARK  106  A    between atoms: _248  and  _251
REMARK  107  A    between atoms: _251  and  _252
REMARK  108  A    between atoms: _255  and  _257
REMARK  109  A    between atoms: _257  and  _258
REMARK  110  A    between atoms: _257  and  _260
REMARK  111  A    between atoms: _260  and  _261
REMARK  112  A    between atoms: _261  and  _262
REMARK  113  A    between atoms: _264  and  _266
REMARK  114  A    between atoms: _266  and  _267
REMARK  115  A    between atoms: _266  and  _269
REMARK  116  A    between atoms: _269  and  _270
REMARK  117  A    between atoms: _270  and  _271
REMARK  118  A    between atoms: _274  and  _276
REMARK  119  A    between atoms: _276  and  _277
REMARK  120  A    between atoms: _276  and  _279
REMARK  121  A    between atoms: _279  and  _280
REMARK  122  A    between atoms: _280  and  _281
REMARK  123  A    between atoms: _281  and  _282
REMARK  124  A    between atoms: _282  and  _283
REMARK  125  A    between atoms: _287  and  _289
REMARK  126  A    between atoms: _289  and  _290
REMARK                            x       y       z     vdW  Elec       q    Type
REMARK                         _______ _______ _______ _____ _____    ______ ____
ROOT
ATOM      1  O   HOH     1      26.376  -3.515  35.002  0.00  0.00    +0.000 OA
ENDROOT
TORSDOF 0
REMARK  Name = ../refined-set-2016/3b5j/3b5j_pocket.pdb
REMARK  126 active torsions:
REMARK  status: ('A' for Active; 'I' for Inactive)
REMARK    1  A    between atoms: _1  and  _3
REMARK    2  A    between atoms: _3  and  _4
REMARK    3  A    between atoms: _3  and  _6
REMARK    4  A    between atoms: _6  and  _7
REMARK    5  A    between atoms: _13  and  _15
REMARK    6  A    between atoms: _15  and  _16
REMARK    7  A    between atoms: _15  and  _18
REMARK    8  A    between atoms: _18  and  _19
REMARK    9  A    between atoms: _19  and  _20
REMARK   10  A    between atoms: _20  and  _21
REMARK   11  A    between atoms: _30  and  _32
REMARK   12  A    between atoms: _32  and  _33
REMARK   13  A    between atoms: _32  and  _35
REMARK   14  A    between atoms: _35  and  _36
REMARK   15  A    between atoms: _41  and  _42
REMARK   16  A    between atoms: _44  and  _46
REMARK   17  A    between atoms: _46  and  _47
REMARK   18  A    between atoms: _46  and  _49
REMARK   19  A    between atoms: _49  and  _50
REMARK   20  A    between atoms: _50  and  _51
REMARK   21  A    between atoms: _51  and  _52
REMARK   22  A    between atoms: _52  and  _53
REMARK   23  A    between atoms: _57  and  _59
REMARK   24  A    between atoms: _59  and  _60
REMARK   25  A    between atoms: _59  and  _62
REMARK   26  A    between atoms: _62  and  _63
REMARK   27  A    between atoms: _66  and  _67
REMARK   28  A    between atoms: _72  and  _74
REMARK   29  A    between atoms: _74  and  _75
REMARK   30  A    between atoms: _74  and  _77
REMARK   31  A    between atoms: _80  and  _82
REMARK   32  A    between atoms: _82  and  _83
REMARK   33  A    between atoms: _82  and  _85
REMARK   34  A    between atoms: _85  and  _86
REMARK   35  A    between atoms: _89  and  _91
REMARK   36  A    between atoms: _91  and  _92
REMARK   37  A    between atoms: _91  and  _94
REMARK   38  A    between atoms: _94  and  _95
REMARK   39  A    between atoms: _98  and  _100
REMARK   40  A    between atoms: _100  and  _101
REMARK   41  A    between atoms: _100  and  _103
REMARK   42  A    between atoms: _103  and  _104
REMARK   43  A    between atoms: _107  and  _109
REMARK   44  A    between atoms: _109  and  _110
REMARK   45  A    between atoms: _109  and  _112
REMARK   46  A    between atoms: _115  and  _117
REMARK   47  A    between atoms: _117  and  _118
REMARK   48  A    between atoms: _120  and  _122
REMARK   49  A    between atoms: _122  and  _123
REMARK   50  A    between atoms: _122  and  _125
REMARK   51  A    between atoms: _125  and  _126
REMARK   52  A    between atoms: _126  and  _127
REMARK   53  A    between atoms: _127  and  _128
REMARK   54  A    between atoms: _137  and  _139
REMARK   55  A    between atoms: _139  and  _140
REMARK   56  A    between atoms: _143  and  _145
REMARK   57  A    between atoms: _145  and  _146
REMARK   58  A    between atoms: _148  and  _150
REMARK   59  A    between atoms: _150  and  _151
REMARK   60  A    between atoms: _150  and  _153
REMARK   61  A    between atoms: _153  and  _154
REMARK   62  A    between atoms: _156  and  _158
REMARK   63  A    between atoms: _158  and  _159
REMARK   64  A    between atoms: _161  and  _163
REMARK   65  A    between atoms: _163  and  _164
REMARK   66  A    between atoms: _163  and  _166
REMARK   67  A    between atoms: _166  and  _167
REMARK   68  A    between atoms: _167  and  _168
REMARK   69  A    between atoms: _168  and  _169
REMARK   70  A    between atoms: _169  and  _170
REMARK   71  A    between atoms: _174  and  _176
REMARK   72  A    between atoms: _176  and  _177
REMARK   73  A    between atoms: _176  and  _179
REMARK   74  A    between atoms: _179  and  _180
REMARK   75  A    between atoms: _182  and  _184
REMARK   76  A    between atoms: _184  and  _185
REMARK   77  A    between atoms: _184  and  _187
REMARK   78  A    between atoms: _187  and  _188
REMARK   79  A    between atoms: _191  and  _193
REMARK   80  A    between atoms: _193  and  _194
REMARK   81  A    between atoms: _193  and  _196
REMARK   82  A    between atoms: _196  and  _197
REMARK   83  A    between atoms: _200  and  _202
REMARK   84  A    between atoms: _202  and  _203
REMARK   85  A    between atoms: _202  and  _205
REMARK   86  A    between atoms: _205  and  _206
REMARK   87  A    between atoms: _209  and  _211
REMARK   88  A    between atoms: _211  and  _212
REMARK   89  A    between atoms: _211  and  _214
REMARK   90  A    between atoms: _214  and  _215
REMARK   91  A    between atoms: _215  and  _216
REMARK   92  A    between atoms: _216  and  _217
REMARK   93  A    between atoms: _217  and  _218
REMARK   94  A    between atoms: _222  and  _224
REMARK   95  A    between atoms: _224  and  _225
REMARK   96  A    between atoms: _224  and  _227
REMARK   97  A    between atoms: _227  and  _228
REMARK   98  A    between atoms: _233  and  _234
REMARK   99  A    between atoms: _236  and  _238
REMARK  100  A    between atoms: _238  and  _239
REMARK  101  A    between atoms: _238  and  _241
REMARK  102  A    between atoms: _241  and  _242
REMARK  103  A    between atoms: _242  and  _243
REMARK  104  A    between atoms: _246  and  _248
REMARK  105  A    between atoms: _248  and  _249
REMARK  106  A    between atoms: _248  and  _251
REMARK  107  A    between atoms: _251  and  _252
REMARK  108  A    between atoms: _255  and  _257
REMARK  109  A    between atoms: _257  and  _258
REMARK  110  A    between atoms: _257  and  _260
REMARK  111  A    between atoms: _260  and  _261
REMARK  112  A    between atoms: _261  and  _262
REMARK  113  A    between atoms: _264  and  _266
REMARK  114  A    between atoms: _266  and  _267
REMARK  115  A    between atoms: _266  and  _269
REMARK  116  A    between atoms: _269  and  _270
REMARK  117  A    between atoms: _270  and  _271
REMARK  118  A    between atoms: _274  and  _276
REMARK  119  A    between atoms: _276  and  _277
REMARK  120  A    between atoms: _276  and  _279
REMARK  121  A    between atoms: _279  and  _280
REMARK  122  A    between atoms: _280  and  _281
REMARK  123  A    between atoms: _281  and  _282
REMARK  124  A    between atoms: _282  and  _283
REMARK  125  A    between atoms: _287  and  _289
REMARK  126  A    between atoms: _289  and  _290
REMARK                            x       y       z     vdW  Elec       q    Type
REMARK                         _______ _______ _______ _____ _____    ______ ____
ROOT
ATOM      1  O   HOH     1      20.472   2.225  23.673  0.00  0.00    +0.000 OA
ENDROOT
TORSDOF 0
REMARK  Name = ../refined-set-2016/3b5j/3b5j_pocket.pdb
REMARK  126 active torsions:
REMARK  status: ('A' for Active; 'I' for Inactive)
REMARK    1  A    between atoms: _1  and  _3
REMARK    2  A    between atoms: _3  and  _4
REMARK    3  A    between atoms: _3  and  _6
REMARK    4  A    between atoms: _6  and  _7
REMARK    5  A    between atoms: _13  and  _15
REMARK    6  A    between atoms: _15  and  _16
REMARK    7  A    between atoms: _15  and  _18
REMARK    8  A    between atoms: _18  and  _19
REMARK    9  A    between atoms: _19  and  _20
REMARK   10  A    between atoms: _20  and  _21
REMARK   11  A    between atoms: _30  and  _32
REMARK   12  A    between atoms: _32  and  _33
REMARK   13  A    between atoms: _32  and  _35
REMARK   14  A    between atoms: _35  and  _36
REMARK   15  A    between atoms: _41  and  _42
REMARK   16  A    between atoms: _44  and  _46
REMARK   17  A    between atoms: _46  and  _47
REMARK   18  A    between atoms: _46  and  _49
REMARK   19  A    between atoms: _49  and  _50
REMARK   20  A    between atoms: _50  and  _51
REMARK   21  A    between atoms: _51  and  _52
REMARK   22  A    between atoms: _52  and  _53
REMARK   23  A    between atoms: _57  and  _59
REMARK   24  A    between atoms: _59  and  _60
REMARK   25  A    between atoms: _59  and  _62
REMARK   26  A    between atoms: _62  and  _63
REMARK   27  A    between atoms: _66  and  _67
REMARK   28  A    between atoms: _72  and  _74
REMARK   29  A    between atoms: _74  and  _75
REMARK   30  A    between atoms: _74  and  _77
REMARK   31  A    between atoms: _80  and  _82
REMARK   32  A    between atoms: _82  and  _83
REMARK   33  A    between atoms: _82  and  _85
REMARK   34  A    between atoms: _85  and  _86
REMARK   35  A    between atoms: _89  and  _91
REMARK   36  A    between atoms: _91  and  _92
REMARK   37  A    between atoms: _91  and  _94
REMARK   38  A    between atoms: _94  and  _95
REMARK   39  A    between atoms: _98  and  _100
REMARK   40  A    between atoms: _100  and  _101
REMARK   41  A    between atoms: _100  and  _103
REMARK   42  A    between atoms: _103  and  _104
REMARK   43  A    between atoms: _107  and  _109
REMARK   44  A    between atoms: _109  and  _110
REMARK   45  A    between atoms: _109  and  _112
REMARK   46  A    between atoms: _115  and  _117
REMARK   47  A    between atoms: _117  and  _118
REMARK   48  A    between atoms: _120  and  _122
REMARK   49  A    between atoms: _122  and  _123
REMARK   50  A    between atoms: _122  and  _125
REMARK   51  A    between atoms: _125  and  _126
REMARK   52  A    between atoms: _126  and  _127
REMARK   53  A    between atoms: _127  and  _128
REMARK   54  A    between atoms: _137  and  _139
REMARK   55  A    between atoms: _139  and  _140
REMARK   56  A    between atoms: _143  and  _145
REMARK   57  A    between atoms: _145  and  _146
REMARK   58  A    between atoms: _148  and  _150
REMARK   59  A    between atoms: _150  and  _151
REMARK   60  A    between atoms: _150  and  _153
REMARK   61  A    between atoms: _153  and  _154
REMARK   62  A    between atoms: _156  and  _158
REMARK   63  A    between atoms: _158  and  _159
REMARK   64  A    between atoms: _161  and  _163
REMARK   65  A    between atoms: _163  and  _164
REMARK   66  A    between atoms: _163  and  _166
REMARK   67  A    between atoms: _166  and  _167
REMARK   68  A    between atoms: _167  and  _168
REMARK   69  A    between atoms: _168  and  _169
REMARK   70  A    between atoms: _169  and  _170
REMARK   71  A    between atoms: _174  and  _176
REMARK   72  A    between atoms: _176  and  _177
REMARK   73  A    between atoms: _176  and  _179
REMARK   74  A    between atoms: _179  and  _180
REMARK   75  A    between atoms: _182  and  _184
REMARK   76  A    between atoms: _184  and  _185
REMARK   77  A    between atoms: _184  and  _187
REMARK   78  A    between atoms: _187  and  _188
REMARK   79  A    between atoms: _191  and  _193
REMARK   80  A    between atoms: _193  and  _194
REMARK   81  A    between atoms: _193  and  _196
REMARK   82  A    between atoms: _196  and  _197
REMARK   83  A    between atoms: _200  and  _202
REMARK   84  A    between atoms: _202  and  _203
REMARK   85  A    between atoms: _202  and  _205
REMARK   86  A    between atoms: _205  and  _206
REMARK   87  A    between atoms: _209  and  _211
REMARK   88  A    between atoms: _211  and  _212
REMARK   89  A    between atoms: _211  and  _214
REMARK   90  A    between atoms: _214  and  _215
REMARK   91  A    between atoms: _215  and  _216
REMARK   92  A    between atoms: _216  and  _217
REMARK   93  A    between atoms: _217  and  _218
REMARK   94  A    between atoms: _222  and  _224
REMARK   95  A    between atoms: _224  and  _225
REMARK   96  A    between atoms: _224  and  _227
REMARK   97  A    between atoms: _227  and  _228
REMARK   98  A    between atoms: _233  and  _234
REMARK   99  A    between atoms: _236  and  _238
REMARK  100  A    between atoms: _238  and  _239
REMARK  101  A    between atoms: _238  and  _241
REMARK  102  A    between atoms: _241  and  _242
REMARK  103  A    between atoms: _242  and  _243
REMARK  104  A    between atoms: _246  and  _248
REMARK  105  A    between atoms: _248  and  _249
REMARK  106  A    between atoms: _248  and  _251
REMARK  107  A    between atoms: _251  and  _252
REMARK  108  A    between atoms: _255  and  _257
REMARK  109  A    between atoms: _257  and  _258
REMARK  110  A    between atoms: _257  and  _260
REMARK  111  A    between atoms: _260  and  _261
REMARK  112  A    between atoms: _261  and  _262
REMARK  113  A    between atoms: _264  and  _266
REMARK  114  A    between atoms: _266  and  _267
REMARK  115  A    between atoms: _266  and  _269
REMARK  116  A    between atoms: _269  and  _270
REMARK  117  A    between atoms: _270  and  _271
REMARK  118  A    between atoms: _274  and  _276
REMARK  119  A    between atoms: _276  and  _277
REMARK  120  A    between atoms: _276  and  _279
REMARK  121  A    between atoms: _279  and  _280
REMARK  122  A    between atoms: _280  and  _281
REMARK  123  A    between atoms: _281  and  _282
REMARK  124  A    between atoms: _282  and  _283
REMARK  125  A    between atoms: _287  and  _289
REMARK  126  A    between atoms: _289  and  _290
REMARK                            x       y       z     vdW  Elec       q    Type
REMARK                         _______ _______ _______ _____ _____    ______ ____
ROOT
ATOM      1  O   HOH     1      20.055  -0.096  30.007  0.00  0.00    +0.000 OA
ENDROOT
TORSDOF 0
REMARK  Name = ../refined-set-2016/3b5j/3b5j_pocket.pdb
REMARK  126 active torsions:
REMARK  status: ('A' for Active; 'I' for Inactive)
REMARK    1  A    between atoms: _1  and  _3
REMARK    2  A    between atoms: _3  and  _4
REMARK    3  A    between atoms: _3  and  _6
REMARK    4  A    between atoms: _6  and  _7
REMARK    5  A    between atoms: _13  and  _15
REMARK    6  A    between atoms: _15  and  _16
REMARK    7  A    between atoms: _15  and  _18
REMARK    8  A    between atoms: _18  and  _19
REMARK    9  A    between atoms: _19  and  _20
REMARK   10  A    between atoms: _20  and  _21
REMARK   11  A    between atoms: _30  and  _32
REMARK   12  A    between atoms: _32  and  _33
REMARK   13  A    between atoms: _32  and  _35
REMARK   14  A    between atoms: _35  and  _36
REMARK   15  A    between atoms: _41  and  _42
REMARK   16  A    between atoms: _44  and  _46
REMARK   17  A    between atoms: _46  and  _47
REMARK   18  A    between atoms: _46  and  _49
REMARK   19  A    between atoms: _49  and  _50
REMARK   20  A    between atoms: _50  and  _51
REMARK   21  A    between atoms: _51  and  _52
REMARK   22  A    between atoms: _52  and  _53
REMARK   23  A    between atoms: _57  and  _59
REMARK   24  A    between atoms: _59  and  _60
REMARK   25  A    between atoms: _59  and  _62
REMARK   26  A    between atoms: _62  and  _63
REMARK   27  A    between atoms: _66  and  _67
REMARK   28  A    between atoms: _72  and  _74
REMARK   29  A    between atoms: _74  and  _75
REMARK   30  A    between atoms: _74  and  _77
REMARK   31  A    between atoms: _80  and  _82
REMARK   32  A    between atoms: _82  and  _83
REMARK   33  A    between atoms: _82  and  _85
REMARK   34  A    between atoms: _85  and  _86
REMARK   35  A    between atoms: _89  and  _91
REMARK   36  A    between atoms: _91  and  _92
REMARK   37  A    between atoms: _91  and  _94
REMARK   38  A    between atoms: _94  and  _95
REMARK   39  A    between atoms: _98  and  _100
REMARK   40  A    between atoms: _100  and  _101
REMARK   41  A    between atoms: _100  and  _103
REMARK   42  A    between atoms: _103  and  _104
REMARK   43  A    between atoms: _107  and  _109
REMARK   44  A    between atoms: _109  and  _110
REMARK   45  A    between atoms: _109  and  _112
REMARK   46  A    between atoms: _115  and  _117
REMARK   47  A    between atoms: _117  and  _118
REMARK   48  A    between atoms: _120  and  _122
REMARK   49  A    between atoms: _122  and  _123
REMARK   50  A    between atoms: _122  and  _125
REMARK   51  A    between atoms: _125  and  _126
REMARK   52  A    between atoms: _126  and  _127
REMARK   53  A    between atoms: _127  and  _128
REMARK   54  A    between atoms: _137  and  _139
REMARK   55  A    between atoms: _139  and  _140
REMARK   56  A    between atoms: _143  and  _145
REMARK   57  A    between atoms: _145  and  _146
REMARK   58  A    between atoms: _148  and  _150
REMARK   59  A    between atoms: _150  and  _151
REMARK   60  A    between atoms: _150  and  _153
REMARK   61  A    between atoms: _153  and  _154
REMARK   62  A    between atoms: _156  and  _158
REMARK   63  A    between atoms: _158  and  _159
REMARK   64  A    between atoms: _161  and  _163
REMARK   65  A    between atoms: _163  and  _164
REMARK   66  A    between atoms: _163  and  _166
REMARK   67  A    between atoms: _166  and  _167
REMARK   68  A    between atoms: _167  and  _168
REMARK   69  A    between atoms: _168  and  _169
REMARK   70  A    between atoms: _169  and  _170
REMARK   71  A    between atoms: _174  and  _176
REMARK   72  A    between atoms: _176  and  _177
REMARK   73  A    between atoms: _176  and  _179
REMARK   74  A    between atoms: _179  and  _180
REMARK   75  A    between atoms: _182  and  _184
REMARK   76  A    between atoms: _184  and  _185
REMARK   77  A    between atoms: _184  and  _187
REMARK   78  A    between atoms: _187  and  _188
REMARK   79  A    between atoms: _191  and  _193
REMARK   80  A    between atoms: _193  and  _194
REMARK   81  A    between atoms: _193  and  _196
REMARK   82  A    between atoms: _196  and  _197
REMARK   83  A    between atoms: _200  and  _202
REMARK   84  A    between atoms: _202  and  _203
REMARK   85  A    between atoms: _202  and  _205
REMARK   86  A    between atoms: _205  and  _206
REMARK   87  A    between atoms: _209  and  _211
REMARK   88  A    between atoms: _211  and  _212
REMARK   89  A    between atoms: _211  and  _214
REMARK   90  A    between atoms: _214  and  _215
REMARK   91  A    between atoms: _215  and  _216
REMARK   92  A    between atoms: _216  and  _217
REMARK   93  A    between atoms: _217  and  _218
REMARK   94  A    between atoms: _222  and  _224
REMARK   95  A    between atoms: _224  and  _225
REMARK   96  A    between atoms: _224  and  _227
REMARK   97  A    between atoms: _227  and  _228
REMARK   98  A    between atoms: _233  and  _234
REMARK   99  A    between atoms: _236  and  _238
REMARK  100  A    between atoms: _238  and  _239
REMARK  101  A    between atoms: _238  and  _241
REMARK  102  A    between atoms: _241  and  _242
REMARK  103  A    between atoms: _242  and  _243
REMARK  104  A    between atoms: _246  and  _248
REMARK  105  A    between atoms: _248  and  _249
REMARK  106  A    between atoms: _248  and  _251
REMARK  107  A    between atoms: _251  and  _252
REMARK  108  A    between atoms: _255  and  _257
REMARK  109  A    between atoms: _257  and  _258
REMARK  110  A    between atoms: _257  and  _260
REMARK  111  A    between atoms: _260  and  _261
REMARK  112  A    between atoms: _261  and  _262
REMARK  113  A    between atoms: _264  and  _266
REMARK  114  A    between atoms: _266  and  _267
REMARK  115  A    between atoms: _266  and  _269
REMARK  116  A    between atoms: _269  and  _270
REMARK  117  A    between atoms: _270  and  _271
REMARK  118  A    between atoms: _274  and  _276
REMARK  119  A    between atoms: _276  and  _277
REMARK  120  A    between atoms: _276  and  _279
REMARK  121  A    between atoms: _279  and  _280
REMARK  122  A    between atoms: _280  and  _281
REMARK  123  A    between atoms: _281  and  _282
REMARK  124  A    between atoms: _282  and  _283
REMARK  125  A    between atoms: _287  and  _289
REMARK  126  A    between atoms: _289  and  _290
REMARK                            x       y       z     vdW  Elec       q    Type
REMARK                         _______ _______ _______ _____ _____    ______ ____
ROOT
ATOM      1  O   HOH     1      17.244   4.586  23.976  0.00  0.00    +0.000 OA
ENDROOT
TORSDOF 0
REMARK  Name = ../refined-set-2016/3b5j/3b5j_pocket.pdb
REMARK  126 active torsions:
REMARK  status: ('A' for Active; 'I' for Inactive)
REMARK    1  A    between atoms: _1  and  _3
REMARK    2  A    between atoms: _3  and  _4
REMARK    3  A    between atoms: _3  and  _6
REMARK    4  A    between atoms: _6  and  _7
REMARK    5  A    between atoms: _13  and  _15
REMARK    6  A    between atoms: _15  and  _16
REMARK    7  A    between atoms: _15  and  _18
REMARK    8  A    between atoms: _18  and  _19
REMARK    9  A    between atoms: _19  and  _20
REMARK   10  A    between atoms: _20  and  _21
REMARK   11  A    between atoms: _30  and  _32
REMARK   12  A    between atoms: _32  and  _33
REMARK   13  A    between atoms: _32  and  _35
REMARK   14  A    between atoms: _35  and  _36
REMARK   15  A    between atoms: _41  and  _42
REMARK   16  A    between atoms: _44  and  _46
REMARK   17  A    between atoms: _46  and  _47
REMARK   18  A    between atoms: _46  and  _49
REMARK   19  A    between atoms: _49  and  _50
REMARK   20  A    between atoms: _50  and  _51
REMARK   21  A    between atoms: _51  and  _52
REMARK   22  A    between atoms: _52  and  _53
REMARK   23  A    between atoms: _57  and  _59
REMARK   24  A    between atoms: _59  and  _60
REMARK   25  A    between atoms: _59  and  _62
REMARK   26  A    between atoms: _62  and  _63
REMARK   27  A    between atoms: _66  and  _67
REMARK   28  A    between atoms: _72  and  _74
REMARK   29  A    between atoms: _74  and  _75
REMARK   30  A    between atoms: _74  and  _77
REMARK   31  A    between atoms: _80  and  _82
REMARK   32  A    between atoms: _82  and  _83
REMARK   33  A    between atoms: _82  and  _85
REMARK   34  A    between atoms: _85  and  _86
REMARK   35  A    between atoms: _89  and  _91
REMARK   36  A    between atoms: _91  and  _92
REMARK   37  A    between atoms: _91  and  _94
REMARK   38  A    between atoms: _94  and  _95
REMARK   39  A    between atoms: _98  and  _100
REMARK   40  A    between atoms: _100  and  _101
REMARK   41  A    between atoms: _100  and  _103
REMARK   42  A    between atoms: _103  and  _104
REMARK   43  A    between atoms: _107  and  _109
REMARK   44  A    between atoms: _109  and  _110
REMARK   45  A    between atoms: _109  and  _112
REMARK   46  A    between atoms: _115  and  _117
REMARK   47  A    between atoms: _117  and  _118
REMARK   48  A    between atoms: _120  and  _122
REMARK   49  A    between atoms: _122  and  _123
REMARK   50  A    between atoms: _122  and  _125
REMARK   51  A    between atoms: _125  and  _126
REMARK   52  A    between atoms: _126  and  _127
REMARK   53  A    between atoms: _127  and  _128
REMARK   54  A    between atoms: _137  and  _139
REMARK   55  A    between atoms: _139  and  _140
REMARK   56  A    between atoms: _143  and  _145
REMARK   57  A    between atoms: _145  and  _146
REMARK   58  A    between atoms: _148  and  _150
REMARK   59  A    between atoms: _150  and  _151
REMARK   60  A    between atoms: _150  and  _153
REMARK   61  A    between atoms: _153  and  _154
REMARK   62  A    between atoms: _156  and  _158
REMARK   63  A    between atoms: _158  and  _159
REMARK   64  A    between atoms: _161  and  _163
REMARK   65  A    between atoms: _163  and  _164
REMARK   66  A    between atoms: _163  and  _166
REMARK   67  A    between atoms: _166  and  _167
REMARK   68  A    between atoms: _167  and  _168
REMARK   69  A    between atoms: _168  and  _169
REMARK   70  A    between atoms: _169  and  _170
REMARK   71  A    between atoms: _174  and  _176
REMARK   72  A    between atoms: _176  and  _177
REMARK   73  A    between atoms: _176  and  _179
REMARK   74  A    between atoms: _179  and  _180
REMARK   75  A    between atoms: _182  and  _184
REMARK   76  A    between atoms: _184  and  _185
REMARK   77  A    between atoms: _184  and  _187
REMARK   78  A    between atoms: _187  and  _188
REMARK   79  A    between atoms: _191  and  _193
REMARK   80  A    between atoms: _193  and  _194
REMARK   81  A    between atoms: _193  and  _196
REMARK   82  A    between atoms: _196  and  _197
REMARK   83  A    between atoms: _200  and  _202
REMARK   84  A    between atoms: _202  and  _203
REMARK   85  A    between atoms: _202  and  _205
REMARK   86  A    between atoms: _205  and  _206
REMARK   87  A    between atoms: _209  and  _211
REMARK   88  A    between atoms: _211  and  _212
REMARK   89  A    between atoms: _211  and  _214
REMARK   90  A    between atoms: _214  and  _215
REMARK   91  A    between atoms: _215  and  _216
REMARK   92  A    between atoms: _216  and  _217
REMARK   93  A    between atoms: _217  and  _218
REMARK   94  A    between atoms: _222  and  _224
REMARK   95  A    between atoms: _224  and  _225
REMARK   96  A    between atoms: _224  and  _227
REMARK   97  A    between atoms: _227  and  _228
REMARK   98  A    between atoms: _233  and  _234
REMARK   99  A    between atoms: _236  and  _238
REMARK  100  A    between atoms: _238  and  _239
REMARK  101  A    between atoms: _238  and  _241
REMARK  102  A    between atoms: _241  and  _242
REMARK  103  A    between atoms: _242  and  _243
REMARK  104  A    between atoms: _246  and  _248
REMARK  105  A    between atoms: _248  and  _249
REMARK  106  A    between atoms: _248  and  _251
REMARK  107  A    between atoms: _251  and  _252
REMARK  108  A    between atoms: _255  and  _257
REMARK  109  A    between atoms: _257  and  _258
REMARK  110  A    between atoms: _257  and  _260
REMARK  111  A    between atoms: _260  and  _261
REMARK  112  A    between atoms: _261  and  _262
REMARK  113  A    between atoms: _264  and  _266
REMARK  114  A    between atoms: _266  and  _267
REMARK  115  A    between atoms: _266  and  _269
REMARK  116  A    between atoms: _269  and  _270
REMARK  117  A    between atoms: _270  and  _271
REMARK  118  A    between atoms: _274  and  _276
REMARK  119  A    between atoms: _276  and  _277
REMARK  120  A    between atoms: _276  and  _279
REMARK  121  A    between atoms: _279  and  _280
REMARK  122  A    between atoms: _280  and  _281
REMARK  123  A    between atoms: _281  and  _282
REMARK  124  A    between atoms: _282  and  _283
REMARK  125  A    between atoms: _287  and  _289
REMARK  126  A    between atoms: _289  and  _290
REMARK                            x       y       z     vdW  Elec       q    Type
REMARK                         _______ _______ _______ _____ _____    ______ ____
ROOT
ATOM      1  O   HOH     1      21.206   1.523  26.408  0.00  0.00    +0.000 OA
ENDROOT
TORSDOF 0
REMARK  Name = ../refined-set-2016/3b5j/3b5j_pocket.pdb
REMARK  126 active torsions:
REMARK  status: ('A' for Active; 'I' for Inactive)
REMARK    1  A    between atoms: _1  and  _3
REMARK    2  A    between atoms: _3  and  _4
REMARK    3  A    between atoms: _3  and  _6
REMARK    4  A    between atoms: _6  and  _7
REMARK    5  A    between atoms: _13  and  _15
REMARK    6  A    between atoms: _15  and  _16
REMARK    7  A    between atoms: _15  and  _18
REMARK    8  A    between atoms: _18  and  _19
REMARK    9  A    between atoms: _19  and  _20
REMARK   10  A    between atoms: _20  and  _21
REMARK   11  A    between atoms: _30  and  _32
REMARK   12  A    between atoms: _32  and  _33
REMARK   13  A    between atoms: _32  and  _35
REMARK   14  A    between atoms: _35  and  _36
REMARK   15  A    between atoms: _41  and  _42
REMARK   16  A    between atoms: _44  and  _46
REMARK   17  A    between atoms: _46  and  _47
REMARK   18  A    between atoms: _46  and  _49
REMARK   19  A    between atoms: _49  and  _50
REMARK   20  A    between atoms: _50  and  _51
REMARK   21  A    between atoms: _51  and  _52
REMARK   22  A    between atoms: _52  and  _53
REMARK   23  A    between atoms: _57  and  _59
REMARK   24  A    between atoms: _59  and  _60
REMARK   25  A    between atoms: _59  and  _62
REMARK   26  A    between atoms: _62  and  _63
REMARK   27  A    between atoms: _66  and  _67
REMARK   28  A    between atoms: _72  and  _74
REMARK   29  A    between atoms: _74  and  _75
REMARK   30  A    between atoms: _74  and  _77
REMARK   31  A    between atoms: _80  and  _82
REMARK   32  A    between atoms: _82  and  _83
REMARK   33  A    between atoms: _82  and  _85
REMARK   34  A    between atoms: _85  and  _86
REMARK   35  A    between atoms: _89  and  _91
REMARK   36  A    between atoms: _91  and  _92
REMARK   37  A    between atoms: _91  and  _94
REMARK   38  A    between atoms: _94  and  _95
REMARK   39  A    between atoms: _98  and  _100
REMARK   40  A    between atoms: _100  and  _101
REMARK   41  A    between atoms: _100  and  _103
REMARK   42  A    between atoms: _103  and  _104
REMARK   43  A    between atoms: _107  and  _109
REMARK   44  A    between atoms: _109  and  _110
REMARK   45  A    between atoms: _109  and  _112
REMARK   46  A    between atoms: _115  and  _117
REMARK   47  A    between atoms: _117  and  _118
REMARK   48  A    between atoms: _120  and  _122
REMARK   49  A    between atoms: _122  and  _123
REMARK   50  A    between atoms: _122  and  _125
REMARK   51  A    between atoms: _125  and  _126
REMARK   52  A    between atoms: _126  and  _127
REMARK   53  A    between atoms: _127  and  _128
REMARK   54  A    between atoms: _137  and  _139
REMARK   55  A    between atoms: _139  and  _140
REMARK   56  A    between atoms: _143  and  _145
REMARK   57  A    between atoms: _145  and  _146
REMARK   58  A    between atoms: _148  and  _150
REMARK   59  A    between atoms: _150  and  _151
REMARK   60  A    between atoms: _150  and  _153
REMARK   61  A    between atoms: _153  and  _154
REMARK   62  A    between atoms: _156  and  _158
REMARK   63  A    between atoms: _158  and  _159
REMARK   64  A    between atoms: _161  and  _163
REMARK   65  A    between atoms: _163  and  _164
REMARK   66  A    between atoms: _163  and  _166
REMARK   67  A    between atoms: _166  and  _167
REMARK   68  A    between atoms: _167  and  _168
REMARK   69  A    between atoms: _168  and  _169
REMARK   70  A    between atoms: _169  and  _170
REMARK   71  A    between atoms: _174  and  _176
REMARK   72  A    between atoms: _176  and  _177
REMARK   73  A    between atoms: _176  and  _179
REMARK   74  A    between atoms: _179  and  _180
REMARK   75  A    between atoms: _182  and  _184
REMARK   76  A    between atoms: _184  and  _185
REMARK   77  A    between atoms: _184  and  _187
REMARK   78  A    between atoms: _187  and  _188
REMARK   79  A    between atoms: _191  and  _193
REMARK   80  A    between atoms: _193  and  _194
REMARK   81  A    between atoms: _193  and  _196
REMARK   82  A    between atoms: _196  and  _197
REMARK   83  A    between atoms: _200  and  _202
REMARK   84  A    between atoms: _202  and  _203
REMARK   85  A    between atoms: _202  and  _205
REMARK   86  A    between atoms: _205  and  _206
REMARK   87  A    between atoms: _209  and  _211
REMARK   88  A    between atoms: _211  and  _212
REMARK   89  A    between atoms: _211  and  _214
REMARK   90  A    between atoms: _214  and  _215
REMARK   91  A    between atoms: _215  and  _216
REMARK   92  A    between atoms: _216  and  _217
REMARK   93  A    between atoms: _217  and  _218
REMARK   94  A    between atoms: _222  and  _224
REMARK   95  A    between atoms: _224  and  _225
REMARK   96  A    between atoms: _224  and  _227
REMARK   97  A    between atoms: _227  and  _228
REMARK   98  A    between atoms: _233  and  _234
REMARK   99  A    between atoms: _236  and  _238
REMARK  100  A    between atoms: _238  and  _239
REMARK  101  A    between atoms: _238  and  _241
REMARK  102  A    between atoms: _241  and  _242
REMARK  103  A    between atoms: _242  and  _243
REMARK  104  A    between atoms: _246  and  _248
REMARK  105  A    between atoms: _248  and  _249
REMARK  106  A    between atoms: _248  and  _251
REMARK  107  A    between atoms: _251  and  _252
REMARK  108  A    between atoms: _255  and  _257
REMARK  109  A    between atoms: _257  and  _258
REMARK  110  A    between atoms: _257  and  _260
REMARK  111  A    between atoms: _260  and  _261
REMARK  112  A    between atoms: _261  and  _262
REMARK  113  A    between atoms: _264  and  _266
REMARK  114  A    between atoms: _266  and  _267
REMARK  115  A    between atoms: _266  and  _269
REMARK  116  A    between atoms: _269  and  _270
REMARK  117  A    between atoms: _270  and  _271
REMARK  118  A    between atoms: _274  and  _276
REMARK  119  A    between atoms: _276  and  _277
REMARK  120  A    between atoms: _276  and  _279
REMARK  121  A    between atoms: _279  and  _280
REMARK  122  A    between atoms: _280  and  _281
REMARK  123  A    between atoms: _281  and  _282
REMARK  124  A    between atoms: _282  and  _283
REMARK  125  A    between atoms: _287  and  _289
REMARK  126  A    between atoms: _289  and  _290
REMARK                            x       y       z     vdW  Elec       q    Type
REMARK                         _______ _______ _______ _____ _____    ______ ____
ROOT
ATOM      1  O   HOH     1      33.064   8.039  32.149  0.00  0.00    +0.000 OA
ENDROOT
TORSDOF 0
REMARK  Name = ../refined-set-2016/3b5j/3b5j_pocket.pdb
REMARK  126 active torsions:
REMARK  status: ('A' for Active; 'I' for Inactive)
REMARK    1  A    between atoms: _1  and  _3
REMARK    2  A    between atoms: _3  and  _4
REMARK    3  A    between atoms: _3  and  _6
REMARK    4  A    between atoms: _6  and  _7
REMARK    5  A    between atoms: _13  and  _15
REMARK    6  A    between atoms: _15  and  _16
REMARK    7  A    between atoms: _15  and  _18
REMARK    8  A    between atoms: _18  and  _19
REMARK    9  A    between atoms: _19  and  _20
REMARK   10  A    between atoms: _20  and  _21
REMARK   11  A    between atoms: _30  and  _32
REMARK   12  A    between atoms: _32  and  _33
REMARK   13  A    between atoms: _32  and  _35
REMARK   14  A    between atoms: _35  and  _36
REMARK   15  A    between atoms: _41  and  _42
REMARK   16  A    between atoms: _44  and  _46
REMARK   17  A    between atoms: _46  and  _47
REMARK   18  A    between atoms: _46  and  _49
REMARK   19  A    between atoms: _49  and  _50
REMARK   20  A    between atoms: _50  and  _51
REMARK   21  A    between atoms: _51  and  _52
REMARK   22  A    between atoms: _52  and  _53
REMARK   23  A    between atoms: _57  and  _59
REMARK   24  A    between atoms: _59  and  _60
REMARK   25  A    between atoms: _59  and  _62
REMARK   26  A    between atoms: _62  and  _63
REMARK   27  A    between atoms: _66  and  _67
REMARK   28  A    between atoms: _72  and  _74
REMARK   29  A    between atoms: _74  and  _75
REMARK   30  A    between atoms: _74  and  _77
REMARK   31  A    between atoms: _80  and  _82
REMARK   32  A    between atoms: _82  and  _83
REMARK   33  A    between atoms: _82  and  _85
REMARK   34  A    between atoms: _85  and  _86
REMARK   35  A    between atoms: _89  and  _91
REMARK   36  A    between atoms: _91  and  _92
REMARK   37  A    between atoms: _91  and  _94
REMARK   38  A    between atoms: _94  and  _95
REMARK   39  A    between atoms: _98  and  _100
REMARK   40  A    between atoms: _100  and  _101
REMARK   41  A    between atoms: _100  and  _103
REMARK   42  A    between atoms: _103  and  _104
REMARK   43  A    between atoms: _107  and  _109
REMARK   44  A    between atoms: _109  and  _110
REMARK   45  A    between atoms: _109  and  _112
REMARK   46  A    between atoms: _115  and  _117
REMARK   47  A    between atoms: _117  and  _118
REMARK   48  A    between atoms: _120  and  _122
REMARK   49  A    between atoms: _122  and  _123
REMARK   50  A    between atoms: _122  and  _125
REMARK   51  A    between atoms: _125  and  _126
REMARK   52  A    between atoms: _126  and  _127
REMARK   53  A    between atoms: _127  and  _128
REMARK   54  A    between atoms: _137  and  _139
REMARK   55  A    between atoms: _139  and  _140
REMARK   56  A    between atoms: _143  and  _145
REMARK   57  A    between atoms: _145  and  _146
REMARK   58  A    between atoms: _148  and  _150
REMARK   59  A    between atoms: _150  and  _151
REMARK   60  A    between atoms: _150  and  _153
REMARK   61  A    between atoms: _153  and  _154
REMARK   62  A    between atoms: _156  and  _158
REMARK   63  A    between atoms: _158  and  _159
REMARK   64  A    between atoms: _161  and  _163
REMARK   65  A    between atoms: _163  and  _164
REMARK   66  A    between atoms: _163  and  _166
REMARK   67  A    between atoms: _166  and  _167
REMARK   68  A    between atoms: _167  and  _168
REMARK   69  A    between atoms: _168  and  _169
REMARK   70  A    between atoms: _169  and  _170
REMARK   71  A    between atoms: _174  and  _176
REMARK   72  A    between atoms: _176  and  _177
REMARK   73  A    between atoms: _176  and  _179
REMARK   74  A    between atoms: _179  and  _180
REMARK   75  A    between atoms: _182  and  _184
REMARK   76  A    between atoms: _184  and  _185
REMARK   77  A    between atoms: _184  and  _187
REMARK   78  A    between atoms: _187  and  _188
REMARK   79  A    between atoms: _191  and  _193
REMARK   80  A    between atoms: _193  and  _194
REMARK   81  A    between atoms: _193  and  _196
REMARK   82  A    between atoms: _196  and  _197
REMARK   83  A    between atoms: _200  and  _202
REMARK   84  A    between atoms: _202  and  _203
REMARK   85  A    between atoms: _202  and  _205
REMARK   86  A    between atoms: _205  and  _206
REMARK   87  A    between atoms: _209  and  _211
REMARK   88  A    between atoms: _211  and  _212
REMARK   89  A    between atoms: _211  and  _214
REMARK   90  A    between atoms: _214  and  _215
REMARK   91  A    between atoms: _215  and  _216
REMARK   92  A    between atoms: _216  and  _217
REMARK   93  A    between atoms: _217  and  _218
REMARK   94  A    between atoms: _222  and  _224
REMARK   95  A    between atoms: _224  and  _225
REMARK   96  A    between atoms: _224  and  _227
REMARK   97  A    between atoms: _227  and  _228
REMARK   98  A    between atoms: _233  and  _234
REMARK   99  A    between atoms: _236  and  _238
REMARK  100  A    between atoms: _238  and  _239
REMARK  101  A    between atoms: _238  and  _241
REMARK  102  A    between atoms: _241  and  _242
REMARK  103  A    between atoms: _242  and  _243
REMARK  104  A    between atoms: _246  and  _248
REMARK  105  A    between atoms: _248  and  _249
REMARK  106  A    between atoms: _248  and  _251
REMARK  107  A    between atoms: _251  and  _252
REMARK  108  A    between atoms: _255  and  _257
REMARK  109  A    between atoms: _257  and  _258
REMARK  110  A    between atoms: _257  and  _260
REMARK  111  A    between atoms: _260  and  _261
REMARK  112  A    between atoms: _261  and  _262
REMARK  113  A    between atoms: _264  and  _266
REMARK  114  A    between atoms: _266  and  _267
REMARK  115  A    between atoms: _266  and  _269
REMARK  116  A    between atoms: _269  and  _270
REMARK  117  A    between atoms: _270  and  _271
REMARK  118  A    between atoms: _274  and  _276
REMARK  119  A    between atoms: _276  and  _277
REMARK  120  A    between atoms: _276  and  _279
REMARK  121  A    between atoms: _279  and  _280
REMARK  122  A    between atoms: _280  and  _281
REMARK  123  A    between atoms: _281  and  _282
REMARK  124  A    between atoms: _282  and  _283
REMARK  125  A    between atoms: _287  and  _289
REMARK  126  A    between atoms: _289  and  _290
REMARK                            x       y       z     vdW  Elec       q    Type
REMARK                         _______ _______ _______ _____ _____    ______ ____
ROOT
ATOM      1  O   HOH     1      30.709   8.484  33.456  0.00  0.00    +0.000 OA
ENDROOT
TORSDOF 0
REMARK  Name = ../refined-set-2016/3b5j/3b5j_pocket.pdb
REMARK  126 active torsions:
REMARK  status: ('A' for Active; 'I' for Inactive)
REMARK    1  A    between atoms: _1  and  _3
REMARK    2  A    between atoms: _3  and  _4
REMARK    3  A    between atoms: _3  and  _6
REMARK    4  A    between atoms: _6  and  _7
REMARK    5  A    between atoms: _13  and  _15
REMARK    6  A    between atoms: _15  and  _16
REMARK    7  A    between atoms: _15  and  _18
REMARK    8  A    between atoms: _18  and  _19
REMARK    9  A    between atoms: _19  and  _20
REMARK   10  A    between atoms: _20  and  _21
REMARK   11  A    between atoms: _30  and  _32
REMARK   12  A    between atoms: _32  and  _33
REMARK   13  A    between atoms: _32  and  _35
REMARK   14  A    between atoms: _35  and  _36
REMARK   15  A    between atoms: _41  and  _42
REMARK   16  A    between atoms: _44  and  _46
REMARK   17  A    between atoms: _46  and  _47
REMARK   18  A    between atoms: _46  and  _49
REMARK   19  A    between atoms: _49  and  _50
REMARK   20  A    between atoms: _50  and  _51
REMARK   21  A    between atoms: _51  and  _52
REMARK   22  A    between atoms: _52  and  _53
REMARK   23  A    between atoms: _57  and  _59
REMARK   24  A    between atoms: _59  and  _60
REMARK   25  A    between atoms: _59  and  _62
REMARK   26  A    between atoms: _62  and  _63
REMARK   27  A    between atoms: _66  and  _67
REMARK   28  A    between atoms: _72  and  _74
REMARK   29  A    between atoms: _74  and  _75
REMARK   30  A    between atoms: _74  and  _77
REMARK   31  A    between atoms: _80  and  _82
REMARK   32  A    between atoms: _82  and  _83
REMARK   33  A    between atoms: _82  and  _85
REMARK   34  A    between atoms: _85  and  _86
REMARK   35  A    between atoms: _89  and  _91
REMARK   36  A    between atoms: _91  and  _92
REMARK   37  A    between atoms: _91  and  _94
REMARK   38  A    between atoms: _94  and  _95
REMARK   39  A    between atoms: _98  and  _100
REMARK   40  A    between atoms: _100  and  _101
REMARK   41  A    between atoms: _100  and  _103
REMARK   42  A    between atoms: _103  and  _104
REMARK   43  A    between atoms: _107  and  _109
REMARK   44  A    between atoms: _109  and  _110
REMARK   45  A    between atoms: _109  and  _112
REMARK   46  A    between atoms: _115  and  _117
REMARK   47  A    between atoms: _117  and  _118
REMARK   48  A    between atoms: _120  and  _122
REMARK   49  A    between atoms: _122  and  _123
REMARK   50  A    between atoms: _122  and  _125
REMARK   51  A    between atoms: _125  and  _126
REMARK   52  A    between atoms: _126  and  _127
REMARK   53  A    between atoms: _127  and  _128
REMARK   54  A    between atoms: _137  and  _139
REMARK   55  A    between atoms: _139  and  _140
REMARK   56  A    between atoms: _143  and  _145
REMARK   57  A    between atoms: _145  and  _146
REMARK   58  A    between atoms: _148  and  _150
REMARK   59  A    between atoms: _150  and  _151
REMARK   60  A    between atoms: _150  and  _153
REMARK   61  A    between atoms: _153  and  _154
REMARK   62  A    between atoms: _156  and  _158
REMARK   63  A    between atoms: _158  and  _159
REMARK   64  A    between atoms: _161  and  _163
REMARK   65  A    between atoms: _163  and  _164
REMARK   66  A    between atoms: _163  and  _166
REMARK   67  A    between atoms: _166  and  _167
REMARK   68  A    between atoms: _167  and  _168
REMARK   69  A    between atoms: _168  and  _169
REMARK   70  A    between atoms: _169  and  _170
REMARK   71  A    between atoms: _174  and  _176
REMARK   72  A    between atoms: _176  and  _177
REMARK   73  A    between atoms: _176  and  _179
REMARK   74  A    between atoms: _179  and  _180
REMARK   75  A    between atoms: _182  and  _184
REMARK   76  A    between atoms: _184  and  _185
REMARK   77  A    between atoms: _184  and  _187
REMARK   78  A    between atoms: _187  and  _188
REMARK   79  A    between atoms: _191  and  _193
REMARK   80  A    between atoms: _193  and  _194
REMARK   81  A    between atoms: _193  and  _196
REMARK   82  A    between atoms: _196  and  _197
REMARK   83  A    between atoms: _200  and  _202
REMARK   84  A    between atoms: _202  and  _203
REMARK   85  A    between atoms: _202  and  _205
REMARK   86  A    between atoms: _205  and  _206
REMARK   87  A    between atoms: _209  and  _211
REMARK   88  A    between atoms: _211  and  _212
REMARK   89  A    between atoms: _211  and  _214
REMARK   90  A    between atoms: _214  and  _215
REMARK   91  A    between atoms: _215  and  _216
REMARK   92  A    between atoms: _216  and  _217
REMARK   93  A    between atoms: _217  and  _218
REMARK   94  A    between atoms: _222  and  _224
REMARK   95  A    between atoms: _224  and  _225
REMARK   96  A    between atoms: _224  and  _227
REMARK   97  A    between atoms: _227  and  _228
REMARK   98  A    between atoms: _233  and  _234
REMARK   99  A    between atoms: _236  and  _238
REMARK  100  A    between atoms: _238  and  _239
REMARK  101  A    between atoms: _238  and  _241
REMARK  102  A    between atoms: _241  and  _242
REMARK  103  A    between atoms: _242  and  _243
REMARK  104  A    between atoms: _246  and  _248
REMARK  105  A    between atoms: _248  and  _249
REMARK  106  A    between atoms: _248  and  _251
REMARK  107  A    between atoms: _251  and  _252
REMARK  108  A    between atoms: _255  and  _257
REMARK  109  A    between atoms: _257  and  _258
REMARK  110  A    between atoms: _257  and  _260
REMARK  111  A    between atoms: _260  and  _261
REMARK  112  A    between atoms: _261  and  _262
REMARK  113  A    between atoms: _264  and  _266
REMARK  114  A    between atoms: _266  and  _267
REMARK  115  A    between atoms: _266  and  _269
REMARK  116  A    between atoms: _269  and  _270
REMARK  117  A    between atoms: _270  and  _271
REMARK  118  A    between atoms: _274  and  _276
REMARK  119  A    between atoms: _276  and  _277
REMARK  120  A    between atoms: _276  and  _279
REMARK  121  A    between atoms: _279  and  _280
REMARK  122  A    between atoms: _280  and  _281
REMARK  123  A    between atoms: _281  and  _282
REMARK  124  A    between atoms: _282  and  _283
REMARK  125  A    between atoms: _287  and  _289
REMARK  126  A    between atoms: _289  and  _290
REMARK                            x       y       z     vdW  Elec       q    Type
REMARK                         _______ _______ _______ _____ _____    ______ ____
ROOT
ATOM      1  O   HOH     1      22.461   2.781  21.737  0.00  0.00    +0.000 OA
ENDROOT
TORSDOF 0
REMARK  Name = ../refined-set-2016/3b5j/3b5j_pocket.pdb
REMARK  126 active torsions:
REMARK  status: ('A' for Active; 'I' for Inactive)
REMARK    1  A    between atoms: _1  and  _3
REMARK    2  A    between atoms: _3  and  _4
REMARK    3  A    between atoms: _3  and  _6
REMARK    4  A    between atoms: _6  and  _7
REMARK    5  A    between atoms: _13  and  _15
REMARK    6  A    between atoms: _15  and  _16
REMARK    7  A    between atoms: _15  and  _18
REMARK    8  A    between atoms: _18  and  _19
REMARK    9  A    between atoms: _19  and  _20
REMARK   10  A    between atoms: _20  and  _21
REMARK   11  A    between atoms: _30  and  _32
REMARK   12  A    between atoms: _32  and  _33
REMARK   13  A    between atoms: _32  and  _35
REMARK   14  A    between atoms: _35  and  _36
REMARK   15  A    between atoms: _41  and  _42
REMARK   16  A    between atoms: _44  and  _46
REMARK   17  A    between atoms: _46  and  _47
REMARK   18  A    between atoms: _46  and  _49
REMARK   19  A    between atoms: _49  and  _50
REMARK   20  A    between atoms: _50  and  _51
REMARK   21  A    between atoms: _51  and  _52
REMARK   22  A    between atoms: _52  and  _53
REMARK   23  A    between atoms: _57  and  _59
REMARK   24  A    between atoms: _59  and  _60
REMARK   25  A    between atoms: _59  and  _62
REMARK   26  A    between atoms: _62  and  _63
REMARK   27  A    between atoms: _66  and  _67
REMARK   28  A    between atoms: _72  and  _74
REMARK   29  A    between atoms: _74  and  _75
REMARK   30  A    between atoms: _74  and  _77
REMARK   31  A    between atoms: _80  and  _82
REMARK   32  A    between atoms: _82  and  _83
REMARK   33  A    between atoms: _82  and  _85
REMARK   34  A    between atoms: _85  and  _86
REMARK   35  A    between atoms: _89  and  _91
REMARK   36  A    between atoms: _91  and  _92
REMARK   37  A    between atoms: _91  and  _94
REMARK   38  A    between atoms: _94  and  _95
REMARK   39  A    between atoms: _98  and  _100
REMARK   40  A    between atoms: _100  and  _101
REMARK   41  A    between atoms: _100  and  _103
REMARK   42  A    between atoms: _103  and  _104
REMARK   43  A    between atoms: _107  and  _109
REMARK   44  A    between atoms: _109  and  _110
REMARK   45  A    between atoms: _109  and  _112
REMARK   46  A    between atoms: _115  and  _117
REMARK   47  A    between atoms: _117  and  _118
REMARK   48  A    between atoms: _120  and  _122
REMARK   49  A    between atoms: _122  and  _123
REMARK   50  A    between atoms: _122  and  _125
REMARK   51  A    between atoms: _125  and  _126
REMARK   52  A    between atoms: _126  and  _127
REMARK   53  A    between atoms: _127  and  _128
REMARK   54  A    between atoms: _137  and  _139
REMARK   55  A    between atoms: _139  and  _140
REMARK   56  A    between atoms: _143  and  _145
REMARK   57  A    between atoms: _145  and  _146
REMARK   58  A    between atoms: _148  and  _150
REMARK   59  A    between atoms: _150  and  _151
REMARK   60  A    between atoms: _150  and  _153
REMARK   61  A    between atoms: _153  and  _154
REMARK   62  A    between atoms: _156  and  _158
REMARK   63  A    between atoms: _158  and  _159
REMARK   64  A    between atoms: _161  and  _163
REMARK   65  A    between atoms: _163  and  _164
REMARK   66  A    between atoms: _163  and  _166
REMARK   67  A    between atoms: _166  and  _167
REMARK   68  A    between atoms: _167  and  _168
REMARK   69  A    between atoms: _168  and  _169
REMARK   70  A    between atoms: _169  and  _170
REMARK   71  A    between atoms: _174  and  _176
REMARK   72  A    between atoms: _176  and  _177
REMARK   73  A    between atoms: _176  and  _179
REMARK   74  A    between atoms: _179  and  _180
REMARK   75  A    between atoms: _182  and  _184
REMARK   76  A    between atoms: _184  and  _185
REMARK   77  A    between atoms: _184  and  _187
REMARK   78  A    between atoms: _187  and  _188
REMARK   79  A    between atoms: _191  and  _193
REMARK   80  A    between atoms: _193  and  _194
REMARK   81  A    between atoms: _193  and  _196
REMARK   82  A    between atoms: _196  and  _197
REMARK   83  A    between atoms: _200  and  _202
REMARK   84  A    between atoms: _202  and  _203
REMARK   85  A    between atoms: _202  and  _205
REMARK   86  A    between atoms: _205  and  _206
REMARK   87  A    between atoms: _209  and  _211
REMARK   88  A    between atoms: _211  and  _212
REMARK   89  A    between atoms: _211  and  _214
REMARK   90  A    between atoms: _214  and  _215
REMARK   91  A    between atoms: _215  and  _216
REMARK   92  A    between atoms: _216  and  _217
REMARK   93  A    between atoms: _217  and  _218
REMARK   94  A    between atoms: _222  and  _224
REMARK   95  A    between atoms: _224  and  _225
REMARK   96  A    between atoms: _224  and  _227
REMARK   97  A    between atoms: _227  and  _228
REMARK   98  A    between atoms: _233  and  _234
REMARK   99  A    between atoms: _236  and  _238
REMARK  100  A    between atoms: _238  and  _239
REMARK  101  A    between atoms: _238  and  _241
REMARK  102  A    between atoms: _241  and  _242
REMARK  103  A    between atoms: _242  and  _243
REMARK  104  A    between atoms: _246  and  _248
REMARK  105  A    between atoms: _248  and  _249
REMARK  106  A    between atoms: _248  and  _251
REMARK  107  A    between atoms: _251  and  _252
REMARK  108  A    between atoms: _255  and  _257
REMARK  109  A    between atoms: _257  and  _258
REMARK  110  A    between atoms: _257  and  _260
REMARK  111  A    between atoms: _260  and  _261
REMARK  112  A    between atoms: _261  and  _262
REMARK  113  A    between atoms: _264  and  _266
REMARK  114  A    between atoms: _266  and  _267
REMARK  115  A    between atoms: _266  and  _269
REMARK  116  A    between atoms: _269  and  _270
REMARK  117  A    between atoms: _270  and  _271
REMARK  118  A    between atoms: _274  and  _276
REMARK  119  A    between atoms: _276  and  _277
REMARK  120  A    between atoms: _276  and  _279
REMARK  121  A    between atoms: _279  and  _280
REMARK  122  A    between atoms: _280  and  _281
REMARK  123  A    between atoms: _281  and  _282
REMARK  124  A    between atoms: _282  and  _283
REMARK  125  A    between atoms: _287  and  _289
REMARK  126  A    between atoms: _289  and  _290
REMARK                            x       y       z     vdW  Elec       q    Type
REMARK                         _______ _______ _______ _____ _____    ______ ____
ROOT
ATOM      1  O   HOH     1      21.790   3.476  31.198  0.00  0.00    +0.000 OA
ENDROOT
TORSDOF 0
REMARK  Name = ../refined-set-2016/3b5j/3b5j_pocket.pdb
REMARK  126 active torsions:
REMARK  status: ('A' for Active; 'I' for Inactive)
REMARK    1  A    between atoms: _1  and  _3
REMARK    2  A    between atoms: _3  and  _4
REMARK    3  A    between atoms: _3  and  _6
REMARK    4  A    between atoms: _6  and  _7
REMARK    5  A    between atoms: _13  and  _15
REMARK    6  A    between atoms: _15  and  _16
REMARK    7  A    between atoms: _15  and  _18
REMARK    8  A    between atoms: _18  and  _19
REMARK    9  A    between atoms: _19  and  _20
REMARK   10  A    between atoms: _20  and  _21
REMARK   11  A    between atoms: _30  and  _32
REMARK   12  A    between atoms: _32  and  _33
REMARK   13  A    between atoms: _32  and  _35
REMARK   14  A    between atoms: _35  and  _36
REMARK   15  A    between atoms: _41  and  _42
REMARK   16  A    between atoms: _44  and  _46
REMARK   17  A    between atoms: _46  and  _47
REMARK   18  A    between atoms: _46  and  _49
REMARK   19  A    between atoms: _49  and  _50
REMARK   20  A    between atoms: _50  and  _51
REMARK   21  A    between atoms: _51  and  _52
REMARK   22  A    between atoms: _52  and  _53
REMARK   23  A    between atoms: _57  and  _59
REMARK   24  A    between atoms: _59  and  _60
REMARK   25  A    between atoms: _59  and  _62
REMARK   26  A    between atoms: _62  and  _63
REMARK   27  A    between atoms: _66  and  _67
REMARK   28  A    between atoms: _72  and  _74
REMARK   29  A    between atoms: _74  and  _75
REMARK   30  A    between atoms: _74  and  _77
REMARK   31  A    between atoms: _80  and  _82
REMARK   32  A    between atoms: _82  and  _83
REMARK   33  A    between atoms: _82  and  _85
REMARK   34  A    between atoms: _85  and  _86
REMARK   35  A    between atoms: _89  and  _91
REMARK   36  A    between atoms: _91  and  _92
REMARK   37  A    between atoms: _91  and  _94
REMARK   38  A    between atoms: _94  and  _95
REMARK   39  A    between atoms: _98  and  _100
REMARK   40  A    between atoms: _100  and  _101
REMARK   41  A    between atoms: _100  and  _103
REMARK   42  A    between atoms: _103  and  _104
REMARK   43  A    between atoms: _107  and  _109
REMARK   44  A    between atoms: _109  and  _110
REMARK   45  A    between atoms: _109  and  _112
REMARK   46  A    between atoms: _115  and  _117
REMARK   47  A    between atoms: _117  and  _118
REMARK   48  A    between atoms: _120  and  _122
REMARK   49  A    between atoms: _122  and  _123
REMARK   50  A    between atoms: _122  and  _125
REMARK   51  A    between atoms: _125  and  _126
REMARK   52  A    between atoms: _126  and  _127
REMARK   53  A    between atoms: _127  and  _128
REMARK   54  A    between atoms: _137  and  _139
REMARK   55  A    between atoms: _139  and  _140
REMARK   56  A    between atoms: _143  and  _145
REMARK   57  A    between atoms: _145  and  _146
REMARK   58  A    between atoms: _148  and  _150
REMARK   59  A    between atoms: _150  and  _151
REMARK   60  A    between atoms: _150  and  _153
REMARK   61  A    between atoms: _153  and  _154
REMARK   62  A    between atoms: _156  and  _158
REMARK   63  A    between atoms: _158  and  _159
REMARK   64  A    between atoms: _161  and  _163
REMARK   65  A    between atoms: _163  and  _164
REMARK   66  A    between atoms: _163  and  _166
REMARK   67  A    between atoms: _166  and  _167
REMARK   68  A    between atoms: _167  and  _168
REMARK   69  A    between atoms: _168  and  _169
REMARK   70  A    between atoms: _169  and  _170
REMARK   71  A    between atoms: _174  and  _176
REMARK   72  A    between atoms: _176  and  _177
REMARK   73  A    between atoms: _176  and  _179
REMARK   74  A    between atoms: _179  and  _180
REMARK   75  A    between atoms: _182  and  _184
REMARK   76  A    between atoms: _184  and  _185
REMARK   77  A    between atoms: _184  and  _187
REMARK   78  A    between atoms: _187  and  _188
REMARK   79  A    between atoms: _191  and  _193
REMARK   80  A    between atoms: _193  and  _194
REMARK   81  A    between atoms: _193  and  _196
REMARK   82  A    between atoms: _196  and  _197
REMARK   83  A    between atoms: _200  and  _202
REMARK   84  A    between atoms: _202  and  _203
REMARK   85  A    between atoms: _202  and  _205
REMARK   86  A    between atoms: _205  and  _206
REMARK   87  A    between atoms: _209  and  _211
REMARK   88  A    between atoms: _211  and  _212
REMARK   89  A    between atoms: _211  and  _214
REMARK   90  A    between atoms: _214  and  _215
REMARK   91  A    between atoms: _215  and  _216
REMARK   92  A    between atoms: _216  and  _217
REMARK   93  A    between atoms: _217  and  _218
REMARK   94  A    between atoms: _222  and  _224
REMARK   95  A    between atoms: _224  and  _225
REMARK   96  A    between atoms: _224  and  _227
REMARK   97  A    between atoms: _227  and  _228
REMARK   98  A    between atoms: _233  and  _234
REMARK   99  A    between atoms: _236  and  _238
REMARK  100  A    between atoms: _238  and  _239
REMARK  101  A    between atoms: _238  and  _241
REMARK  102  A    between atoms: _241  and  _242
REMARK  103  A    between atoms: _242  and  _243
REMARK  104  A    between atoms: _246  and  _248
REMARK  105  A    between atoms: _248  and  _249
REMARK  106  A    between atoms: _248  and  _251
REMARK  107  A    between atoms: _251  and  _252
REMARK  108  A    between atoms: _255  and  _257
REMARK  109  A    between atoms: _257  and  _258
REMARK  110  A    between atoms: _257  and  _260
REMARK  111  A    between atoms: _260  and  _261
REMARK  112  A    between atoms: _261  and  _262
REMARK  113  A    between atoms: _264  and  _266
REMARK  114  A    between atoms: _266  and  _267
REMARK  115  A    between atoms: _266  and  _269
REMARK  116  A    between atoms: _269  and  _270
REMARK  117  A    between atoms: _270  and  _271
REMARK  118  A    between atoms: _274  and  _276
REMARK  119  A    between atoms: _276  and  _277
REMARK  120  A    between atoms: _276  and  _279
REMARK  121  A    between atoms: _279  and  _280
REMARK  122  A    between atoms: _280  and  _281
REMARK  123  A    between atoms: _281  and  _282
REMARK  124  A    between atoms: _282  and  _283
REMARK  125  A    between atoms: _287  and  _289
REMARK  126  A    between atoms: _289  and  _290
REMARK                            x       y       z     vdW  Elec       q    Type
REMARK                         _______ _______ _______ _____ _____    ______ ____
ROOT
ATOM      1  O   HOH     1      21.043   3.895  27.697  0.00  0.00    +0.000 OA
ENDROOT
TORSDOF 0
REMARK  Name = ../refined-set-2016/3b5j/3b5j_pocket.pdb
REMARK  126 active torsions:
REMARK  status: ('A' for Active; 'I' for Inactive)
REMARK    1  A    between atoms: _1  and  _3
REMARK    2  A    between atoms: _3  and  _4
REMARK    3  A    between atoms: _3  and  _6
REMARK    4  A    between atoms: _6  and  _7
REMARK    5  A    between atoms: _13  and  _15
REMARK    6  A    between atoms: _15  and  _16
REMARK    7  A    between atoms: _15  and  _18
REMARK    8  A    between atoms: _18  and  _19
REMARK    9  A    between atoms: _19  and  _20
REMARK   10  A    between atoms: _20  and  _21
REMARK   11  A    between atoms: _30  and  _32
REMARK   12  A    between atoms: _32  and  _33
REMARK   13  A    between atoms: _32  and  _35
REMARK   14  A    between atoms: _35  and  _36
REMARK   15  A    between atoms: _41  and  _42
REMARK   16  A    between atoms: _44  and  _46
REMARK   17  A    between atoms: _46  and  _47
REMARK   18  A    between atoms: _46  and  _49
REMARK   19  A    between atoms: _49  and  _50
REMARK   20  A    between atoms: _50  and  _51
REMARK   21  A    between atoms: _51  and  _52
REMARK   22  A    between atoms: _52  and  _53
REMARK   23  A    between atoms: _57  and  _59
REMARK   24  A    between atoms: _59  and  _60
REMARK   25  A    between atoms: _59  and  _62
REMARK   26  A    between atoms: _62  and  _63
REMARK   27  A    between atoms: _66  and  _67
REMARK   28  A    between atoms: _72  and  _74
REMARK   29  A    between atoms: _74  and  _75
REMARK   30  A    between atoms: _74  and  _77
REMARK   31  A    between atoms: _80  and  _82
REMARK   32  A    between atoms: _82  and  _83
REMARK   33  A    between atoms: _82  and  _85
REMARK   34  A    between atoms: _85  and  _86
REMARK   35  A    between atoms: _89  and  _91
REMARK   36  A    between atoms: _91  and  _92
REMARK   37  A    between atoms: _91  and  _94
REMARK   38  A    between atoms: _94  and  _95
REMARK   39  A    between atoms: _98  and  _100
REMARK   40  A    between atoms: _100  and  _101
REMARK   41  A    between atoms: _100  and  _103
REMARK   42  A    between atoms: _103  and  _104
REMARK   43  A    between atoms: _107  and  _109
REMARK   44  A    between atoms: _109  and  _110
REMARK   45  A    between atoms: _109  and  _112
REMARK   46  A    between atoms: _115  and  _117
REMARK   47  A    between atoms: _117  and  _118
REMARK   48  A    between atoms: _120  and  _122
REMARK   49  A    between atoms: _122  and  _123
REMARK   50  A    between atoms: _122  and  _125
REMARK   51  A    between atoms: _125  and  _126
REMARK   52  A    between atoms: _126  and  _127
REMARK   53  A    between atoms: _127  and  _128
REMARK   54  A    between atoms: _137  and  _139
REMARK   55  A    between atoms: _139  and  _140
REMARK   56  A    between atoms: _143  and  _145
REMARK   57  A    between atoms: _145  and  _146
REMARK   58  A    between atoms: _148  and  _150
REMARK   59  A    between atoms: _150  and  _151
REMARK   60  A    between atoms: _150  and  _153
REMARK   61  A    between atoms: _153  and  _154
REMARK   62  A    between atoms: _156  and  _158
REMARK   63  A    between atoms: _158  and  _159
REMARK   64  A    between atoms: _161  and  _163
REMARK   65  A    between atoms: _163  and  _164
REMARK   66  A    between atoms: _163  and  _166
REMARK   67  A    between atoms: _166  and  _167
REMARK   68  A    between atoms: _167  and  _168
REMARK   69  A    between atoms: _168  and  _169
REMARK   70  A    between atoms: _169  and  _170
REMARK   71  A    between atoms: _174  and  _176
REMARK   72  A    between atoms: _176  and  _177
REMARK   73  A    between atoms: _176  and  _179
REMARK   74  A    between atoms: _179  and  _180
REMARK   75  A    between atoms: _182  and  _184
REMARK   76  A    between atoms: _184  and  _185
REMARK   77  A    between atoms: _184  and  _187
REMARK   78  A    between atoms: _187  and  _188
REMARK   79  A    between atoms: _191  and  _193
REMARK   80  A    between atoms: _193  and  _194
REMARK   81  A    between atoms: _193  and  _196
REMARK   82  A    between atoms: _196  and  _197
REMARK   83  A    between atoms: _200  and  _202
REMARK   84  A    between atoms: _202  and  _203
REMARK   85  A    between atoms: _202  and  _205
REMARK   86  A    between atoms: _205  and  _206
REMARK   87  A    between atoms: _209  and  _211
REMARK   88  A    between atoms: _211  and  _212
REMARK   89  A    between atoms: _211  and  _214
REMARK   90  A    between atoms: _214  and  _215
REMARK   91  A    between atoms: _215  and  _216
REMARK   92  A    between atoms: _216  and  _217
REMARK   93  A    between atoms: _217  and  _218
REMARK   94  A    between atoms: _222  and  _224
REMARK   95  A    between atoms: _224  and  _225
REMARK   96  A    between atoms: _224  and  _227
REMARK   97  A    between atoms: _227  and  _228
REMARK   98  A    between atoms: _233  and  _234
REMARK   99  A    between atoms: _236  and  _238
REMARK  100  A    between atoms: _238  and  _239
REMARK  101  A    between atoms: _238  and  _241
REMARK  102  A    between atoms: _241  and  _242
REMARK  103  A    between atoms: _242  and  _243
REMARK  104  A    between atoms: _246  and  _248
REMARK  105  A    between atoms: _248  and  _249
REMARK  106  A    between atoms: _248  and  _251
REMARK  107  A    between atoms: _251  and  _252
REMARK  108  A    between atoms: _255  and  _257
REMARK  109  A    between atoms: _257  and  _258
REMARK  110  A    between atoms: _257  and  _260
REMARK  111  A    between atoms: _260  and  _261
REMARK  112  A    between atoms: _261  and  _262
REMARK  113  A    between atoms: _264  and  _266
REMARK  114  A    between atoms: _266  and  _267
REMARK  115  A    between atoms: _266  and  _269
REMARK  116  A    between atoms: _269  and  _270
REMARK  117  A    between atoms: _270  and  _271
REMARK  118  A    between atoms: _274  and  _276
REMARK  119  A    between atoms: _276  and  _277
REMARK  120  A    between atoms: _276  and  _279
REMARK  121  A    between atoms: _279  and  _280
REMARK  122  A    between atoms: _280  and  _281
REMARK  123  A    between atoms: _281  and  _282
REMARK  124  A    between atoms: _282  and  _283
REMARK  125  A    between atoms: _287  and  _289
REMARK  126  A    between atoms: _289  and  _290
REMARK                            x       y       z     vdW  Elec       q    Type
REMARK                         _______ _______ _______ _____ _____    ______ ____
ROOT
ATOM      1  O   HOH     1      19.065  -2.774  35.087  0.00  0.00    +0.000 OA
ENDROOT
TORSDOF 0
REMARK  Name = ../refined-set-2016/3b5j/3b5j_pocket.pdb
REMARK  126 active torsions:
REMARK  status: ('A' for Active; 'I' for Inactive)
REMARK    1  A    between atoms: _1  and  _3
REMARK    2  A    between atoms: _3  and  _4
REMARK    3  A    between atoms: _3  and  _6
REMARK    4  A    between atoms: _6  and  _7
REMARK    5  A    between atoms: _13  and  _15
REMARK    6  A    between atoms: _15  and  _16
REMARK    7  A    between atoms: _15  and  _18
REMARK    8  A    between atoms: _18  and  _19
REMARK    9  A    between atoms: _19  and  _20
REMARK   10  A    between atoms: _20  and  _21
REMARK   11  A    between atoms: _30  and  _32
REMARK   12  A    between atoms: _32  and  _33
REMARK   13  A    between atoms: _32  and  _35
REMARK   14  A    between atoms: _35  and  _36
REMARK   15  A    between atoms: _41  and  _42
REMARK   16  A    between atoms: _44  and  _46
REMARK   17  A    between atoms: _46  and  _47
REMARK   18  A    between atoms: _46  and  _49
REMARK   19  A    between atoms: _49  and  _50
REMARK   20  A    between atoms: _50  and  _51
REMARK   21  A    between atoms: _51  and  _52
REMARK   22  A    between atoms: _52  and  _53
REMARK   23  A    between atoms: _57  and  _59
REMARK   24  A    between atoms: _59  and  _60
REMARK   25  A    between atoms: _59  and  _62
REMARK   26  A    between atoms: _62  and  _63
REMARK   27  A    between atoms: _66  and  _67
REMARK   28  A    between atoms: _72  and  _74
REMARK   29  A    between atoms: _74  and  _75
REMARK   30  A    between atoms: _74  and  _77
REMARK   31  A    between atoms: _80  and  _82
REMARK   32  A    between atoms: _82  and  _83
REMARK   33  A    between atoms: _82  and  _85
REMARK   34  A    between atoms: _85  and  _86
REMARK   35  A    between atoms: _89  and  _91
REMARK   36  A    between atoms: _91  and  _92
REMARK   37  A    between atoms: _91  and  _94
REMARK   38  A    between atoms: _94  and  _95
REMARK   39  A    between atoms: _98  and  _100
REMARK   40  A    between atoms: _100  and  _101
REMARK   41  A    between atoms: _100  and  _103
REMARK   42  A    between atoms: _103  and  _104
REMARK   43  A    between atoms: _107  and  _109
REMARK   44  A    between atoms: _109  and  _110
REMARK   45  A    between atoms: _109  and  _112
REMARK   46  A    between atoms: _115  and  _117
REMARK   47  A    between atoms: _117  and  _118
REMARK   48  A    between atoms: _120  and  _122
REMARK   49  A    between atoms: _122  and  _123
REMARK   50  A    between atoms: _122  and  _125
REMARK   51  A    between atoms: _125  and  _126
REMARK   52  A    between atoms: _126  and  _127
REMARK   53  A    between atoms: _127  and  _128
REMARK   54  A    between atoms: _137  and  _139
REMARK   55  A    between atoms: _139  and  _140
REMARK   56  A    between atoms: _143  and  _145
REMARK   57  A    between atoms: _145  and  _146
REMARK   58  A    between atoms: _148  and  _150
REMARK   59  A    between atoms: _150  and  _151
REMARK   60  A    between atoms: _150  and  _153
REMARK   61  A    between atoms: _153  and  _154
REMARK   62  A    between atoms: _156  and  _158
REMARK   63  A    between atoms: _158  and  _159
REMARK   64  A    between atoms: _161  and  _163
REMARK   65  A    between atoms: _163  and  _164
REMARK   66  A    between atoms: _163  and  _166
REMARK   67  A    between atoms: _166  and  _167
REMARK   68  A    between atoms: _167  and  _168
REMARK   69  A    between atoms: _168  and  _169
REMARK   70  A    between atoms: _169  and  _170
REMARK   71  A    between atoms: _174  and  _176
REMARK   72  A    between atoms: _176  and  _177
REMARK   73  A    between atoms: _176  and  _179
REMARK   74  A    between atoms: _179  and  _180
REMARK   75  A    between atoms: _182  and  _184
REMARK   76  A    between atoms: _184  and  _185
REMARK   77  A    between atoms: _184  and  _187
REMARK   78  A    between atoms: _187  and  _188
REMARK   79  A    between atoms: _191  and  _193
REMARK   80  A    between atoms: _193  and  _194
REMARK   81  A    between atoms: _193  and  _196
REMARK   82  A    between atoms: _196  and  _197
REMARK   83  A    between atoms: _200  and  _202
REMARK   84  A    between atoms: _202  and  _203
REMARK   85  A    between atoms: _202  and  _205
REMARK   86  A    between atoms: _205  and  _206
REMARK   87  A    between atoms: _209  and  _211
REMARK   88  A    between atoms: _211  and  _212
REMARK   89  A    between atoms: _211  and  _214
REMARK   90  A    between atoms: _214  and  _215
REMARK   91  A    between atoms: _215  and  _216
REMARK   92  A    between atoms: _216  and  _217
REMARK   93  A    between atoms: _217  and  _218
REMARK   94  A    between atoms: _222  and  _224
REMARK   95  A    between atoms: _224  and  _225
REMARK   96  A    between atoms: _224  and  _227
REMARK   97  A    between atoms: _227  and  _228
REMARK   98  A    between atoms: _233  and  _234
REMARK   99  A    between atoms: _236  and  _238
REMARK  100  A    between atoms: _238  and  _239
REMARK  101  A    between atoms: _238  and  _241
REMARK  102  A    between atoms: _241  and  _242
REMARK  103  A    between atoms: _242  and  _243
REMARK  104  A    between atoms: _246  and  _248
REMARK  105  A    between atoms: _248  and  _249
REMARK  106  A    between atoms: _248  and  _251
REMARK  107  A    between atoms: _251  and  _252
REMARK  108  A    between atoms: _255  and  _257
REMARK  109  A    between atoms: _257  and  _258
REMARK  110  A    between atoms: _257  and  _260
REMARK  111  A    between atoms: _260  and  _261
REMARK  112  A    between atoms: _261  and  _262
REMARK  113  A    between atoms: _264  and  _266
REMARK  114  A    between atoms: _266  and  _267
REMARK  115  A    between atoms: _266  and  _269
REMARK  116  A    between atoms: _269  and  _270
REMARK  117  A    between atoms: _270  and  _271
REMARK  118  A    between atoms: _274  and  _276
REMARK  119  A    between atoms: _276  and  _277
REMARK  120  A    between atoms: _276  and  _279
REMARK  121  A    between atoms: _279  and  _280
REMARK  122  A    between atoms: _280  and  _281
REMARK  123  A    between atoms: _281  and  _282
REMARK  124  A    between atoms: _282  and  _283
REMARK  125  A    between atoms: _287  and  _289
REMARK  126  A    between atoms: _289  and  _290
REMARK                            x       y       z     vdW  Elec       q    Type
REMARK                         _______ _______ _______ _____ _____    ______ ____
ROOT
ATOM      1  O   HOH     1      31.250  13.944  27.240  0.00  0.00    +0.000 OA
ENDROOT
TORSDOF 0
REMARK  Name = ../refined-set-2016/3b5j/3b5j_pocket.pdb
REMARK  126 active torsions:
REMARK  status: ('A' for Active; 'I' for Inactive)
REMARK    1  A    between atoms: _1  and  _3
REMARK    2  A    between atoms: _3  and  _4
REMARK    3  A    between atoms: _3  and  _6
REMARK    4  A    between atoms: _6  and  _7
REMARK    5  A    between atoms: _13  and  _15
REMARK    6  A    between atoms: _15  and  _16
REMARK    7  A    between atoms: _15  and  _18
REMARK    8  A    between atoms: _18  and  _19
REMARK    9  A    between atoms: _19  and  _20
REMARK   10  A    between atoms: _20  and  _21
REMARK   11  A    between atoms: _30  and  _32
REMARK   12  A    between atoms: _32  and  _33
REMARK   13  A    between atoms: _32  and  _35
REMARK   14  A    between atoms: _35  and  _36
REMARK   15  A    between atoms: _41  and  _42
REMARK   16  A    between atoms: _44  and  _46
REMARK   17  A    between atoms: _46  and  _47
REMARK   18  A    between atoms: _46  and  _49
REMARK   19  A    between atoms: _49  and  _50
REMARK   20  A    between atoms: _50  and  _51
REMARK   21  A    between atoms: _51  and  _52
REMARK   22  A    between atoms: _52  and  _53
REMARK   23  A    between atoms: _57  and  _59
REMARK   24  A    between atoms: _59  and  _60
REMARK   25  A    between atoms: _59  and  _62
REMARK   26  A    between atoms: _62  and  _63
REMARK   27  A    between atoms: _66  and  _67
REMARK   28  A    between atoms: _72  and  _74
REMARK   29  A    between atoms: _74  and  _75
REMARK   30  A    between atoms: _74  and  _77
REMARK   31  A    between atoms: _80  and  _82
REMARK   32  A    between atoms: _82  and  _83
REMARK   33  A    between atoms: _82  and  _85
REMARK   34  A    between atoms: _85  and  _86
REMARK   35  A    between atoms: _89  and  _91
REMARK   36  A    between atoms: _91  and  _92
REMARK   37  A    between atoms: _91  and  _94
REMARK   38  A    between atoms: _94  and  _95
REMARK   39  A    between atoms: _98  and  _100
REMARK   40  A    between atoms: _100  and  _101
REMARK   41  A    between atoms: _100  and  _103
REMARK   42  A    between atoms: _103  and  _104
REMARK   43  A    between atoms: _107  and  _109
REMARK   44  A    between atoms: _109  and  _110
REMARK   45  A    between atoms: _109  and  _112
REMARK   46  A    between atoms: _115  and  _117
REMARK   47  A    between atoms: _117  and  _118
REMARK   48  A    between atoms: _120  and  _122
REMARK   49  A    between atoms: _122  and  _123
REMARK   50  A    between atoms: _122  and  _125
REMARK   51  A    between atoms: _125  and  _126
REMARK   52  A    between atoms: _126  and  _127
REMARK   53  A    between atoms: _127  and  _128
REMARK   54  A    between atoms: _137  and  _139
REMARK   55  A    between atoms: _139  and  _140
REMARK   56  A    between atoms: _143  and  _145
REMARK   57  A    between atoms: _145  and  _146
REMARK   58  A    between atoms: _148  and  _150
REMARK   59  A    between atoms: _150  and  _151
REMARK   60  A    between atoms: _150  and  _153
REMARK   61  A    between atoms: _153  and  _154
REMARK   62  A    between atoms: _156  and  _158
REMARK   63  A    between atoms: _158  and  _159
REMARK   64  A    between atoms: _161  and  _163
REMARK   65  A    between atoms: _163  and  _164
REMARK   66  A    between atoms: _163  and  _166
REMARK   67  A    between atoms: _166  and  _167
REMARK   68  A    between atoms: _167  and  _168
REMARK   69  A    between atoms: _168  and  _169
REMARK   70  A    between atoms: _169  and  _170
REMARK   71  A    between atoms: _174  and  _176
REMARK   72  A    between atoms: _176  and  _177
REMARK   73  A    between atoms: _176  and  _179
REMARK   74  A    between atoms: _179  and  _180
REMARK   75  A    between atoms: _182  and  _184
REMARK   76  A    between atoms: _184  and  _185
REMARK   77  A    between atoms: _184  and  _187
REMARK   78  A    between atoms: _187  and  _188
REMARK   79  A    between atoms: _191  and  _193
REMARK   80  A    between atoms: _193  and  _194
REMARK   81  A    between atoms: _193  and  _196
REMARK   82  A    between atoms: _196  and  _197
REMARK   83  A    between atoms: _200  and  _202
REMARK   84  A    between atoms: _202  and  _203
REMARK   85  A    between atoms: _202  and  _205
REMARK   86  A    between atoms: _205  and  _206
REMARK   87  A    between atoms: _209  and  _211
REMARK   88  A    between atoms: _211  and  _212
REMARK   89  A    between atoms: _211  and  _214
REMARK   90  A    between atoms: _214  and  _215
REMARK   91  A    between atoms: _215  and  _216
REMARK   92  A    between atoms: _216  and  _217
REMARK   93  A    between atoms: _217  and  _218
REMARK   94  A    between atoms: _222  and  _224
REMARK   95  A    between atoms: _224  and  _225
REMARK   96  A    between atoms: _224  and  _227
REMARK   97  A    between atoms: _227  and  _228
REMARK   98  A    between atoms: _233  and  _234
REMARK   99  A    between atoms: _236  and  _238
REMARK  100  A    between atoms: _238  and  _239
REMARK  101  A    between atoms: _238  and  _241
REMARK  102  A    between atoms: _241  and  _242
REMARK  103  A    between atoms: _242  and  _243
REMARK  104  A    between atoms: _246  and  _248
REMARK  105  A    between atoms: _248  and  _249
REMARK  106  A    between atoms: _248  and  _251
REMARK  107  A    between atoms: _251  and  _252
REMARK  108  A    between atoms: _255  and  _257
REMARK  109  A    between atoms: _257  and  _258
REMARK  110  A    between atoms: _257  and  _260
REMARK  111  A    between atoms: _260  and  _261
REMARK  112  A    between atoms: _261  and  _262
REMARK  113  A    between atoms: _264  and  _266
REMARK  114  A    between atoms: _266  and  _267
REMARK  115  A    between atoms: _266  and  _269
REMARK  116  A    between atoms: _269  and  _270
REMARK  117  A    between atoms: _270  and  _271
REMARK  118  A    between atoms: _274  and  _276
REMARK  119  A    between atoms: _276  and  _277
REMARK  120  A    between atoms: _276  and  _279
REMARK  121  A    between atoms: _279  and  _280
REMARK  122  A    between atoms: _280  and  _281
REMARK  123  A    between atoms: _281  and  _282
REMARK  124  A    between atoms: _282  and  _283
REMARK  125  A    between atoms: _287  and  _289
REMARK  126  A    between atoms: _289  and  _290
REMARK                            x       y       z     vdW  Elec       q    Type
REMARK                         _______ _______ _______ _____ _____    ______ ____
ROOT
ATOM      1  O   HOH     1      30.112   0.371  32.439  0.00  0.00    +0.000 OA
ENDROOT
TORSDOF 0
REMARK  Name = ../refined-set-2016/3b5j/3b5j_pocket.pdb
REMARK  126 active torsions:
REMARK  status: ('A' for Active; 'I' for Inactive)
REMARK    1  A    between atoms: _1  and  _3
REMARK    2  A    between atoms: _3  and  _4
REMARK    3  A    between atoms: _3  and  _6
REMARK    4  A    between atoms: _6  and  _7
REMARK    5  A    between atoms: _13  and  _15
REMARK    6  A    between atoms: _15  and  _16
REMARK    7  A    between atoms: _15  and  _18
REMARK    8  A    between atoms: _18  and  _19
REMARK    9  A    between atoms: _19  and  _20
REMARK   10  A    between atoms: _20  and  _21
REMARK   11  A    between atoms: _30  and  _32
REMARK   12  A    between atoms: _32  and  _33
REMARK   13  A    between atoms: _32  and  _35
REMARK   14  A    between atoms: _35  and  _36
REMARK   15  A    between atoms: _41  and  _42
REMARK   16  A    between atoms: _44  and  _46
REMARK   17  A    between atoms: _46  and  _47
REMARK   18  A    between atoms: _46  and  _49
REMARK   19  A    between atoms: _49  and  _50
REMARK   20  A    between atoms: _50  and  _51
REMARK   21  A    between atoms: _51  and  _52
REMARK   22  A    between atoms: _52  and  _53
REMARK   23  A    between atoms: _57  and  _59
REMARK   24  A    between atoms: _59  and  _60
REMARK   25  A    between atoms: _59  and  _62
REMARK   26  A    between atoms: _62  and  _63
REMARK   27  A    between atoms: _66  and  _67
REMARK   28  A    between atoms: _72  and  _74
REMARK   29  A    between atoms: _74  and  _75
REMARK   30  A    between atoms: _74  and  _77
REMARK   31  A    between atoms: _80  and  _82
REMARK   32  A    between atoms: _82  and  _83
REMARK   33  A    between atoms: _82  and  _85
REMARK   34  A    between atoms: _85  and  _86
REMARK   35  A    between atoms: _89  and  _91
REMARK   36  A    between atoms: _91  and  _92
REMARK   37  A    between atoms: _91  and  _94
REMARK   38  A    between atoms: _94  and  _95
REMARK   39  A    between atoms: _98  and  _100
REMARK   40  A    between atoms: _100  and  _101
REMARK   41  A    between atoms: _100  and  _103
REMARK   42  A    between atoms: _103  and  _104
REMARK   43  A    between atoms: _107  and  _109
REMARK   44  A    between atoms: _109  and  _110
REMARK   45  A    between atoms: _109  and  _112
REMARK   46  A    between atoms: _115  and  _117
REMARK   47  A    between atoms: _117  and  _118
REMARK   48  A    between atoms: _120  and  _122
REMARK   49  A    between atoms: _122  and  _123
REMARK   50  A    between atoms: _122  and  _125
REMARK   51  A    between atoms: _125  and  _126
REMARK   52  A    between atoms: _126  and  _127
REMARK   53  A    between atoms: _127  and  _128
REMARK   54  A    between atoms: _137  and  _139
REMARK   55  A    between atoms: _139  and  _140
REMARK   56  A    between atoms: _143  and  _145
REMARK   57  A    between atoms: _145  and  _146
REMARK   58  A    between atoms: _148  and  _150
REMARK   59  A    between atoms: _150  and  _151
REMARK   60  A    between atoms: _150  and  _153
REMARK   61  A    between atoms: _153  and  _154
REMARK   62  A    between atoms: _156  and  _158
REMARK   63  A    between atoms: _158  and  _159
REMARK   64  A    between atoms: _161  and  _163
REMARK   65  A    between atoms: _163  and  _164
REMARK   66  A    between atoms: _163  and  _166
REMARK   67  A    between atoms: _166  and  _167
REMARK   68  A    between atoms: _167  and  _168
REMARK   69  A    between atoms: _168  and  _169
REMARK   70  A    between atoms: _169  and  _170
REMARK   71  A    between atoms: _174  and  _176
REMARK   72  A    between atoms: _176  and  _177
REMARK   73  A    between atoms: _176  and  _179
REMARK   74  A    between atoms: _179  and  _180
REMARK   75  A    between atoms: _182  and  _184
REMARK   76  A    between atoms: _184  and  _185
REMARK   77  A    between atoms: _184  and  _187
REMARK   78  A    between atoms: _187  and  _188
REMARK   79  A    between atoms: _191  and  _193
REMARK   80  A    between atoms: _193  and  _194
REMARK   81  A    between atoms: _193  and  _196
REMARK   82  A    between atoms: _196  and  _197
REMARK   83  A    between atoms: _200  and  _202
REMARK   84  A    between atoms: _202  and  _203
REMARK   85  A    between atoms: _202  and  _205
REMARK   86  A    between atoms: _205  and  _206
REMARK   87  A    between atoms: _209  and  _211
REMARK   88  A    between atoms: _211  and  _212
REMARK   89  A    between atoms: _211  and  _214
REMARK   90  A    between atoms: _214  and  _215
REMARK   91  A    between atoms: _215  and  _216
REMARK   92  A    between atoms: _216  and  _217
REMARK   93  A    between atoms: _217  and  _218
REMARK   94  A    between atoms: _222  and  _224
REMARK   95  A    between atoms: _224  and  _225
REMARK   96  A    between atoms: _224  and  _227
REMARK   97  A    between atoms: _227  and  _228
REMARK   98  A    between atoms: _233  and  _234
REMARK   99  A    between atoms: _236  and  _238
REMARK  100  A    between atoms: _238  and  _239
REMARK  101  A    between atoms: _238  and  _241
REMARK  102  A    between atoms: _241  and  _242
REMARK  103  A    between atoms: _242  and  _243
REMARK  104  A    between atoms: _246  and  _248
REMARK  105  A    between atoms: _248  and  _249
REMARK  106  A    between atoms: _248  and  _251
REMARK  107  A    between atoms: _251  and  _252
REMARK  108  A    between atoms: _255  and  _257
REMARK  109  A    between atoms: _257  and  _258
REMARK  110  A    between atoms: _257  and  _260
REMARK  111  A    between atoms: _260  and  _261
REMARK  112  A    between atoms: _261  and  _262
REMARK  113  A    between atoms: _264  and  _266
REMARK  114  A    between atoms: _266  and  _267
REMARK  115  A    between atoms: _266  and  _269
REMARK  116  A    between atoms: _269  and  _270
REMARK  117  A    between atoms: _270  and  _271
REMARK  118  A    between atoms: _274  and  _276
REMARK  119  A    between atoms: _276  and  _277
REMARK  120  A    between atoms: _276  and  _279
REMARK  121  A    between atoms: _279  and  _280
REMARK  122  A    between atoms: _280  and  _281
REMARK  123  A    between atoms: _281  and  _282
REMARK  124  A    between atoms: _282  and  _283
REMARK  125  A    between atoms: _287  and  _289
REMARK  126  A    between atoms: _289  and  _290
REMARK                            x       y       z     vdW  Elec       q    Type
REMARK                         _______ _______ _______ _____ _____    ______ ____
ROOT
ATOM      1  O   HOH     1      30.339  12.886  20.676  0.00  0.00    +0.000 OA
ENDROOT
TORSDOF 0
REMARK  Name = ../refined-set-2016/3b5j/3b5j_pocket.pdb
REMARK  126 active torsions:
REMARK  status: ('A' for Active; 'I' for Inactive)
REMARK    1  A    between atoms: _1  and  _3
REMARK    2  A    between atoms: _3  and  _4
REMARK    3  A    between atoms: _3  and  _6
REMARK    4  A    between atoms: _6  and  _7
REMARK    5  A    between atoms: _13  and  _15
REMARK    6  A    between atoms: _15  and  _16
REMARK    7  A    between atoms: _15  and  _18
REMARK    8  A    between atoms: _18  and  _19
REMARK    9  A    between atoms: _19  and  _20
REMARK   10  A    between atoms: _20  and  _21
REMARK   11  A    between atoms: _30  and  _32
REMARK   12  A    between atoms: _32  and  _33
REMARK   13  A    between atoms: _32  and  _35
REMARK   14  A    between atoms: _35  and  _36
REMARK   15  A    between atoms: _41  and  _42
REMARK   16  A    between atoms: _44  and  _46
REMARK   17  A    between atoms: _46  and  _47
REMARK   18  A    between atoms: _46  and  _49
REMARK   19  A    between atoms: _49  and  _50
REMARK   20  A    between atoms: _50  and  _51
REMARK   21  A    between atoms: _51  and  _52
REMARK   22  A    between atoms: _52  and  _53
REMARK   23  A    between atoms: _57  and  _59
REMARK   24  A    between atoms: _59  and  _60
REMARK   25  A    between atoms: _59  and  _62
REMARK   26  A    between atoms: _62  and  _63
REMARK   27  A    between atoms: _66  and  _67
REMARK   28  A    between atoms: _72  and  _74
REMARK   29  A    between atoms: _74  and  _75
REMARK   30  A    between atoms: _74  and  _77
REMARK   31  A    between atoms: _80  and  _82
REMARK   32  A    between atoms: _82  and  _83
REMARK   33  A    between atoms: _82  and  _85
REMARK   34  A    between atoms: _85  and  _86
REMARK   35  A    between atoms: _89  and  _91
REMARK   36  A    between atoms: _91  and  _92
REMARK   37  A    between atoms: _91  and  _94
REMARK   38  A    between atoms: _94  and  _95
REMARK   39  A    between atoms: _98  and  _100
REMARK   40  A    between atoms: _100  and  _101
REMARK   41  A    between atoms: _100  and  _103
REMARK   42  A    between atoms: _103  and  _104
REMARK   43  A    between atoms: _107  and  _109
REMARK   44  A    between atoms: _109  and  _110
REMARK   45  A    between atoms: _109  and  _112
REMARK   46  A    between atoms: _115  and  _117
REMARK   47  A    between atoms: _117  and  _118
REMARK   48  A    between atoms: _120  and  _122
REMARK   49  A    between atoms: _122  and  _123
REMARK   50  A    between atoms: _122  and  _125
REMARK   51  A    between atoms: _125  and  _126
REMARK   52  A    between atoms: _126  and  _127
REMARK   53  A    between atoms: _127  and  _128
REMARK   54  A    between atoms: _137  and  _139
REMARK   55  A    between atoms: _139  and  _140
REMARK   56  A    between atoms: _143  and  _145
REMARK   57  A    between atoms: _145  and  _146
REMARK   58  A    between atoms: _148  and  _150
REMARK   59  A    between atoms: _150  and  _151
REMARK   60  A    between atoms: _150  and  _153
REMARK   61  A    between atoms: _153  and  _154
REMARK   62  A    between atoms: _156  and  _158
REMARK   63  A    between atoms: _158  and  _159
REMARK   64  A    between atoms: _161  and  _163
REMARK   65  A    between atoms: _163  and  _164
REMARK   66  A    between atoms: _163  and  _166
REMARK   67  A    between atoms: _166  and  _167
REMARK   68  A    between atoms: _167  and  _168
REMARK   69  A    between atoms: _168  and  _169
REMARK   70  A    between atoms: _169  and  _170
REMARK   71  A    between atoms: _174  and  _176
REMARK   72  A    between atoms: _176  and  _177
REMARK   73  A    between atoms: _176  and  _179
REMARK   74  A    between atoms: _179  and  _180
REMARK   75  A    between atoms: _182  and  _184
REMARK   76  A    between atoms: _184  and  _185
REMARK   77  A    between atoms: _184  and  _187
REMARK   78  A    between atoms: _187  and  _188
REMARK   79  A    between atoms: _191  and  _193
REMARK   80  A    between atoms: _193  and  _194
REMARK   81  A    between atoms: _193  and  _196
REMARK   82  A    between atoms: _196  and  _197
REMARK   83  A    between atoms: _200  and  _202
REMARK   84  A    between atoms: _202  and  _203
REMARK   85  A    between atoms: _202  and  _205
REMARK   86  A    between atoms: _205  and  _206
REMARK   87  A    between atoms: _209  and  _211
REMARK   88  A    between atoms: _211  and  _212
REMARK   89  A    between atoms: _211  and  _214
REMARK   90  A    between atoms: _214  and  _215
REMARK   91  A    between atoms: _215  and  _216
REMARK   92  A    between atoms: _216  and  _217
REMARK   93  A    between atoms: _217  and  _218
REMARK   94  A    between atoms: _222  and  _224
REMARK   95  A    between atoms: _224  and  _225
REMARK   96  A    between atoms: _224  and  _227
REMARK   97  A    between atoms: _227  and  _228
REMARK   98  A    between atoms: _233  and  _234
REMARK   99  A    between atoms: _236  and  _238
REMARK  100  A    between atoms: _238  and  _239
REMARK  101  A    between atoms: _238  and  _241
REMARK  102  A    between atoms: _241  and  _242
REMARK  103  A    between atoms: _242  and  _243
REMARK  104  A    between atoms: _246  and  _248
REMARK  105  A    between atoms: _248  and  _249
REMARK  106  A    between atoms: _248  and  _251
REMARK  107  A    between atoms: _251  and  _252
REMARK  108  A    between atoms: _255  and  _257
REMARK  109  A    between atoms: _257  and  _258
REMARK  110  A    between atoms: _257  and  _260
REMARK  111  A    between atoms: _260  and  _261
REMARK  112  A    between atoms: _261  and  _262
REMARK  113  A    between atoms: _264  and  _266
REMARK  114  A    between atoms: _266  and  _267
REMARK  115  A    between atoms: _266  and  _269
REMARK  116  A    between atoms: _269  and  _270
REMARK  117  A    between atoms: _270  and  _271
REMARK  118  A    between atoms: _274  and  _276
REMARK  119  A    between atoms: _276  and  _277
REMARK  120  A    between atoms: _276  and  _279
REMARK  121  A    between atoms: _279  and  _280
REMARK  122  A    between atoms: _280  and  _281
REMARK  123  A    between atoms: _281  and  _282
REMARK  124  A    between atoms: _282  and  _283
REMARK  125  A    between atoms: _287  and  _289
REMARK  126  A    between atoms: _289  and  _290
REMARK                            x       y       z     vdW  Elec       q    Type
REMARK                         _______ _______ _______ _____ _____    ______ ____
ROOT
ATOM      1  O   HOH     1      22.512  -0.765  37.191  0.00  0.00    +0.000 OA
ENDROOT
TORSDOF 0
REMARK  Name = ../refined-set-2016/3b5j/3b5j_pocket.pdb
REMARK  126 active torsions:
REMARK  status: ('A' for Active; 'I' for Inactive)
REMARK    1  A    between atoms: _1  and  _3
REMARK    2  A    between atoms: _3  and  _4
REMARK    3  A    between atoms: _3  and  _6
REMARK    4  A    between atoms: _6  and  _7
REMARK    5  A    between atoms: _13  and  _15
REMARK    6  A    between atoms: _15  and  _16
REMARK    7  A    between atoms: _15  and  _18
REMARK    8  A    between atoms: _18  and  _19
REMARK    9  A    between atoms: _19  and  _20
REMARK   10  A    between atoms: _20  and  _21
REMARK   11  A    between atoms: _30  and  _32
REMARK   12  A    between atoms: _32  and  _33
REMARK   13  A    between atoms: _32  and  _35
REMARK   14  A    between atoms: _35  and  _36
REMARK   15  A    between atoms: _41  and  _42
REMARK   16  A    between atoms: _44  and  _46
REMARK   17  A    between atoms: _46  and  _47
REMARK   18  A    between atoms: _46  and  _49
REMARK   19  A    between atoms: _49  and  _50
REMARK   20  A    between atoms: _50  and  _51
REMARK   21  A    between atoms: _51  and  _52
REMARK   22  A    between atoms: _52  and  _53
REMARK   23  A    between atoms: _57  and  _59
REMARK   24  A    between atoms: _59  and  _60
REMARK   25  A    between atoms: _59  and  _62
REMARK   26  A    between atoms: _62  and  _63
REMARK   27  A    between atoms: _66  and  _67
REMARK   28  A    between atoms: _72  and  _74
REMARK   29  A    between atoms: _74  and  _75
REMARK   30  A    between atoms: _74  and  _77
REMARK   31  A    between atoms: _80  and  _82
REMARK   32  A    between atoms: _82  and  _83
REMARK   33  A    between atoms: _82  and  _85
REMARK   34  A    between atoms: _85  and  _86
REMARK   35  A    between atoms: _89  and  _91
REMARK   36  A    between atoms: _91  and  _92
REMARK   37  A    between atoms: _91  and  _94
REMARK   38  A    between atoms: _94  and  _95
REMARK   39  A    between atoms: _98  and  _100
REMARK   40  A    between atoms: _100  and  _101
REMARK   41  A    between atoms: _100  and  _103
REMARK   42  A    between atoms: _103  and  _104
REMARK   43  A    between atoms: _107  and  _109
REMARK   44  A    between atoms: _109  and  _110
REMARK   45  A    between atoms: _109  and  _112
REMARK   46  A    between atoms: _115  and  _117
REMARK   47  A    between atoms: _117  and  _118
REMARK   48  A    between atoms: _120  and  _122
REMARK   49  A    between atoms: _122  and  _123
REMARK   50  A    between atoms: _122  and  _125
REMARK   51  A    between atoms: _125  and  _126
REMARK   52  A    between atoms: _126  and  _127
REMARK   53  A    between atoms: _127  and  _128
REMARK   54  A    between atoms: _137  and  _139
REMARK   55  A    between atoms: _139  and  _140
REMARK   56  A    between atoms: _143  and  _145
REMARK   57  A    between atoms: _145  and  _146
REMARK   58  A    between atoms: _148  and  _150
REMARK   59  A    between atoms: _150  and  _151
REMARK   60  A    between atoms: _150  and  _153
REMARK   61  A    between atoms: _153  and  _154
REMARK   62  A    between atoms: _156  and  _158
REMARK   63  A    between atoms: _158  and  _159
REMARK   64  A    between atoms: _161  and  _163
REMARK   65  A    between atoms: _163  and  _164
REMARK   66  A    between atoms: _163  and  _166
REMARK   67  A    between atoms: _166  and  _167
REMARK   68  A    between atoms: _167  and  _168
REMARK   69  A    between atoms: _168  and  _169
REMARK   70  A    between atoms: _169  and  _170
REMARK   71  A    between atoms: _174  and  _176
REMARK   72  A    between atoms: _176  and  _177
REMARK   73  A    between atoms: _176  and  _179
REMARK   74  A    between atoms: _179  and  _180
REMARK   75  A    between atoms: _182  and  _184
REMARK   76  A    between atoms: _184  and  _185
REMARK   77  A    between atoms: _184  and  _187
REMARK   78  A    between atoms: _187  and  _188
REMARK   79  A    between atoms: _191  and  _193
REMARK   80  A    between atoms: _193  and  _194
REMARK   81  A    between atoms: _193  and  _196
REMARK   82  A    between atoms: _196  and  _197
REMARK   83  A    between atoms: _200  and  _202
REMARK   84  A    between atoms: _202  and  _203
REMARK   85  A    between atoms: _202  and  _205
REMARK   86  A    between atoms: _205  and  _206
REMARK   87  A    between atoms: _209  and  _211
REMARK   88  A    between atoms: _211  and  _212
REMARK   89  A    between atoms: _211  and  _214
REMARK   90  A    between atoms: _214  and  _215
REMARK   91  A    between atoms: _215  and  _216
REMARK   92  A    between atoms: _216  and  _217
REMARK   93  A    between atoms: _217  and  _218
REMARK   94  A    between atoms: _222  and  _224
REMARK   95  A    between atoms: _224  and  _225
REMARK   96  A    between atoms: _224  and  _227
REMARK   97  A    between atoms: _227  and  _228
REMARK   98  A    between atoms: _233  and  _234
REMARK   99  A    between atoms: _236  and  _238
REMARK  100  A    between atoms: _238  and  _239
REMARK  101  A    between atoms: _238  and  _241
REMARK  102  A    between atoms: _241  and  _242
REMARK  103  A    between atoms: _242  and  _243
REMARK  104  A    between atoms: _246  and  _248
REMARK  105  A    between atoms: _248  and  _249
REMARK  106  A    between atoms: _248  and  _251
REMARK  107  A    between atoms: _251  and  _252
REMARK  108  A    between atoms: _255  and  _257
REMARK  109  A    between atoms: _257  and  _258
REMARK  110  A    between atoms: _257  and  _260
REMARK  111  A    between atoms: _260  and  _261
REMARK  112  A    between atoms: _261  and  _262
REMARK  113  A    between atoms: _264  and  _266
REMARK  114  A    between atoms: _266  and  _267
REMARK  115  A    between atoms: _266  and  _269
REMARK  116  A    between atoms: _269  and  _270
REMARK  117  A    between atoms: _270  and  _271
REMARK  118  A    between atoms: _274  and  _276
REMARK  119  A    between atoms: _276  and  _277
REMARK  120  A    between atoms: _276  and  _279
REMARK  121  A    between atoms: _279  and  _280
REMARK  122  A    between atoms: _280  and  _281
REMARK  123  A    between atoms: _281  and  _282
REMARK  124  A    between atoms: _282  and  _283
REMARK  125  A    between atoms: _287  and  _289
REMARK  126  A    between atoms: _289  and  _290
REMARK                            x       y       z     vdW  Elec       q    Type
REMARK                         _______ _______ _______ _____ _____    ______ ____
ROOT
ATOM      1  O   HOH     1      21.755   3.556  33.998  0.00  0.00    +0.000 OA
ENDROOT
TORSDOF 0
REMARK  Name = ../refined-set-2016/3b5j/3b5j_pocket.pdb
REMARK  126 active torsions:
REMARK  status: ('A' for Active; 'I' for Inactive)
REMARK    1  A    between atoms: _1  and  _3
REMARK    2  A    between atoms: _3  and  _4
REMARK    3  A    between atoms: _3  and  _6
REMARK    4  A    between atoms: _6  and  _7
REMARK    5  A    between atoms: _13  and  _15
REMARK    6  A    between atoms: _15  and  _16
REMARK    7  A    between atoms: _15  and  _18
REMARK    8  A    between atoms: _18  and  _19
REMARK    9  A    between atoms: _19  and  _20
REMARK   10  A    between atoms: _20  and  _21
REMARK   11  A    between atoms: _30  and  _32
REMARK   12  A    between atoms: _32  and  _33
REMARK   13  A    between atoms: _32  and  _35
REMARK   14  A    between atoms: _35  and  _36
REMARK   15  A    between atoms: _41  and  _42
REMARK   16  A    between atoms: _44  and  _46
REMARK   17  A    between atoms: _46  and  _47
REMARK   18  A    between atoms: _46  and  _49
REMARK   19  A    between atoms: _49  and  _50
REMARK   20  A    between atoms: _50  and  _51
REMARK   21  A    between atoms: _51  and  _52
REMARK   22  A    between atoms: _52  and  _53
REMARK   23  A    between atoms: _57  and  _59
REMARK   24  A    between atoms: _59  and  _60
REMARK   25  A    between atoms: _59  and  _62
REMARK   26  A    between atoms: _62  and  _63
REMARK   27  A    between atoms: _66  and  _67
REMARK   28  A    between atoms: _72  and  _74
REMARK   29  A    between atoms: _74  and  _75
REMARK   30  A    between atoms: _74  and  _77
REMARK   31  A    between atoms: _80  and  _82
REMARK   32  A    between atoms: _82  and  _83
REMARK   33  A    between atoms: _82  and  _85
REMARK   34  A    between atoms: _85  and  _86
REMARK   35  A    between atoms: _89  and  _91
REMARK   36  A    between atoms: _91  and  _92
REMARK   37  A    between atoms: _91  and  _94
REMARK   38  A    between atoms: _94  and  _95
REMARK   39  A    between atoms: _98  and  _100
REMARK   40  A    between atoms: _100  and  _101
REMARK   41  A    between atoms: _100  and  _103
REMARK   42  A    between atoms: _103  and  _104
REMARK   43  A    between atoms: _107  and  _109
REMARK   44  A    between atoms: _109  and  _110
REMARK   45  A    between atoms: _109  and  _112
REMARK   46  A    between atoms: _115  and  _117
REMARK   47  A    between atoms: _117  and  _118
REMARK   48  A    between atoms: _120  and  _122
REMARK   49  A    between atoms: _122  and  _123
REMARK   50  A    between atoms: _122  and  _125
REMARK   51  A    between atoms: _125  and  _126
REMARK   52  A    between atoms: _126  and  _127
REMARK   53  A    between atoms: _127  and  _128
REMARK   54  A    between atoms: _137  and  _139
REMARK   55  A    between atoms: _139  and  _140
REMARK   56  A    between atoms: _143  and  _145
REMARK   57  A    between atoms: _145  and  _146
REMARK   58  A    between atoms: _148  and  _150
REMARK   59  A    between atoms: _150  and  _151
REMARK   60  A    between atoms: _150  and  _153
REMARK   61  A    between atoms: _153  and  _154
REMARK   62  A    between atoms: _156  and  _158
REMARK   63  A    between atoms: _158  and  _159
REMARK   64  A    between atoms: _161  and  _163
REMARK   65  A    between atoms: _163  and  _164
REMARK   66  A    between atoms: _163  and  _166
REMARK   67  A    between atoms: _166  and  _167
REMARK   68  A    between atoms: _167  and  _168
REMARK   69  A    between atoms: _168  and  _169
REMARK   70  A    between atoms: _169  and  _170
REMARK   71  A    between atoms: _174  and  _176
REMARK   72  A    between atoms: _176  and  _177
REMARK   73  A    between atoms: _176  and  _179
REMARK   74  A    between atoms: _179  and  _180
REMARK   75  A    between atoms: _182  and  _184
REMARK   76  A    between atoms: _184  and  _185
REMARK   77  A    between atoms: _184  and  _187
REMARK   78  A    between atoms: _187  and  _188
REMARK   79  A    between atoms: _191  and  _193
REMARK   80  A    between atoms: _193  and  _194
REMARK   81  A    between atoms: _193  and  _196
REMARK   82  A    between atoms: _196  and  _197
REMARK   83  A    between atoms: _200  and  _202
REMARK   84  A    between atoms: _202  and  _203
REMARK   85  A    between atoms: _202  and  _205
REMARK   86  A    between atoms: _205  and  _206
REMARK   87  A    between atoms: _209  and  _211
REMARK   88  A    between atoms: _211  and  _212
REMARK   89  A    between atoms: _211  and  _214
REMARK   90  A    between atoms: _214  and  _215
REMARK   91  A    between atoms: _215  and  _216
REMARK   92  A    between atoms: _216  and  _217
REMARK   93  A    between atoms: _217  and  _218
REMARK   94  A    between atoms: _222  and  _224
REMARK   95  A    between atoms: _224  and  _225
REMARK   96  A    between atoms: _224  and  _227
REMARK   97  A    between atoms: _227  and  _228
REMARK   98  A    between atoms: _233  and  _234
REMARK   99  A    between atoms: _236  and  _238
REMARK  100  A    between atoms: _238  and  _239
REMARK  101  A    between atoms: _238  and  _241
REMARK  102  A    between atoms: _241  and  _242
REMARK  103  A    between atoms: _242  and  _243
REMARK  104  A    between atoms: _246  and  _248
REMARK  105  A    between atoms: _248  and  _249
REMARK  106  A    between atoms: _248  and  _251
REMARK  107  A    between atoms: _251  and  _252
REMARK  108  A    between atoms: _255  and  _257
REMARK  109  A    between atoms: _257  and  _258
REMARK  110  A    between atoms: _257  and  _260
REMARK  111  A    between atoms: _260  and  _261
REMARK  112  A    between atoms: _261  and  _262
REMARK  113  A    between atoms: _264  and  _266
REMARK  114  A    between atoms: _266  and  _267
REMARK  115  A    between atoms: _266  and  _269
REMARK  116  A    between atoms: _269  and  _270
REMARK  117  A    between atoms: _270  and  _271
REMARK  118  A    between atoms: _274  and  _276
REMARK  119  A    between atoms: _276  and  _277
REMARK  120  A    between atoms: _276  and  _279
REMARK  121  A    between atoms: _279  and  _280
REMARK  122  A    between atoms: _280  and  _281
REMARK  123  A    between atoms: _281  and  _282
REMARK  124  A    between atoms: _282  and  _283
REMARK  125  A    between atoms: _287  and  _289
REMARK  126  A    between atoms: _289  and  _290
REMARK                            x       y       z     vdW  Elec       q    Type
REMARK                         _______ _______ _______ _____ _____    ______ ____
ROOT
ATOM      1  O   HOH     1      23.962  -2.062  38.761  0.00  0.00    +0.000 OA
ENDROOT
TORSDOF 0
REMARK  Name = ../refined-set-2016/3b5j/3b5j_pocket.pdb
REMARK  126 active torsions:
REMARK  status: ('A' for Active; 'I' for Inactive)
REMARK    1  A    between atoms: _1  and  _3
REMARK    2  A    between atoms: _3  and  _4
REMARK    3  A    between atoms: _3  and  _6
REMARK    4  A    between atoms: _6  and  _7
REMARK    5  A    between atoms: _13  and  _15
REMARK    6  A    between atoms: _15  and  _16
REMARK    7  A    between atoms: _15  and  _18
REMARK    8  A    between atoms: _18  and  _19
REMARK    9  A    between atoms: _19  and  _20
REMARK   10  A    between atoms: _20  and  _21
REMARK   11  A    between atoms: _30  and  _32
REMARK   12  A    between atoms: _32  and  _33
REMARK   13  A    between atoms: _32  and  _35
REMARK   14  A    between atoms: _35  and  _36
REMARK   15  A    between atoms: _41  and  _42
REMARK   16  A    between atoms: _44  and  _46
REMARK   17  A    between atoms: _46  and  _47
REMARK   18  A    between atoms: _46  and  _49
REMARK   19  A    between atoms: _49  and  _50
REMARK   20  A    between atoms: _50  and  _51
REMARK   21  A    between atoms: _51  and  _52
REMARK   22  A    between atoms: _52  and  _53
REMARK   23  A    between atoms: _57  and  _59
REMARK   24  A    between atoms: _59  and  _60
REMARK   25  A    between atoms: _59  and  _62
REMARK   26  A    between atoms: _62  and  _63
REMARK   27  A    between atoms: _66  and  _67
REMARK   28  A    between atoms: _72  and  _74
REMARK   29  A    between atoms: _74  and  _75
REMARK   30  A    between atoms: _74  and  _77
REMARK   31  A    between atoms: _80  and  _82
REMARK   32  A    between atoms: _82  and  _83
REMARK   33  A    between atoms: _82  and  _85
REMARK   34  A    between atoms: _85  and  _86
REMARK   35  A    between atoms: _89  and  _91
REMARK   36  A    between atoms: _91  and  _92
REMARK   37  A    between atoms: _91  and  _94
REMARK   38  A    between atoms: _94  and  _95
REMARK   39  A    between atoms: _98  and  _100
REMARK   40  A    between atoms: _100  and  _101
REMARK   41  A    between atoms: _100  and  _103
REMARK   42  A    between atoms: _103  and  _104
REMARK   43  A    between atoms: _107  and  _109
REMARK   44  A    between atoms: _109  and  _110
REMARK   45  A    between atoms: _109  and  _112
REMARK   46  A    between atoms: _115  and  _117
REMARK   47  A    between atoms: _117  and  _118
REMARK   48  A    between atoms: _120  and  _122
REMARK   49  A    between atoms: _122  and  _123
REMARK   50  A    between atoms: _122  and  _125
REMARK   51  A    between atoms: _125  and  _126
REMARK   52  A    between atoms: _126  and  _127
REMARK   53  A    between atoms: _127  and  _128
REMARK   54  A    between atoms: _137  and  _139
REMARK   55  A    between atoms: _139  and  _140
REMARK   56  A    between atoms: _143  and  _145
REMARK   57  A    between atoms: _145  and  _146
REMARK   58  A    between atoms: _148  and  _150
REMARK   59  A    between atoms: _150  and  _151
REMARK   60  A    between atoms: _150  and  _153
REMARK   61  A    between atoms: _153  and  _154
REMARK   62  A    between atoms: _156  and  _158
REMARK   63  A    between atoms: _158  and  _159
REMARK   64  A    between atoms: _161  and  _163
REMARK   65  A    between atoms: _163  and  _164
REMARK   66  A    between atoms: _163  and  _166
REMARK   67  A    between atoms: _166  and  _167
REMARK   68  A    between atoms: _167  and  _168
REMARK   69  A    between atoms: _168  and  _169
REMARK   70  A    between atoms: _169  and  _170
REMARK   71  A    between atoms: _174  and  _176
REMARK   72  A    between atoms: _176  and  _177
REMARK   73  A    between atoms: _176  and  _179
REMARK   74  A    between atoms: _179  and  _180
REMARK   75  A    between atoms: _182  and  _184
REMARK   76  A    between atoms: _184  and  _185
REMARK   77  A    between atoms: _184  and  _187
REMARK   78  A    between atoms: _187  and  _188
REMARK   79  A    between atoms: _191  and  _193
REMARK   80  A    between atoms: _193  and  _194
REMARK   81  A    between atoms: _193  and  _196
REMARK   82  A    between atoms: _196  and  _197
REMARK   83  A    between atoms: _200  and  _202
REMARK   84  A    between atoms: _202  and  _203
REMARK   85  A    between atoms: _202  and  _205
REMARK   86  A    between atoms: _205  and  _206
REMARK   87  A    between atoms: _209  and  _211
REMARK   88  A    between atoms: _211  and  _212
REMARK   89  A    between atoms: _211  and  _214
REMARK   90  A    between atoms: _214  and  _215
REMARK   91  A    between atoms: _215  and  _216
REMARK   92  A    between atoms: _216  and  _217
REMARK   93  A    between atoms: _217  and  _218
REMARK   94  A    between atoms: _222  and  _224
REMARK   95  A    between atoms: _224  and  _225
REMARK   96  A    between atoms: _224  and  _227
REMARK   97  A    between atoms: _227  and  _228
REMARK   98  A    between atoms: _233  and  _234
REMARK   99  A    between atoms: _236  and  _238
REMARK  100  A    between atoms: _238  and  _239
REMARK  101  A    between atoms: _238  and  _241
REMARK  102  A    between atoms: _241  and  _242
REMARK  103  A    between atoms: _242  and  _243
REMARK  104  A    between atoms: _246  and  _248
REMARK  105  A    between atoms: _248  and  _249
REMARK  106  A    between atoms: _248  and  _251
REMARK  107  A    between atoms: _251  and  _252
REMARK  108  A    between atoms: _255  and  _257
REMARK  109  A    between atoms: _257  and  _258
REMARK  110  A    between atoms: _257  and  _260
REMARK  111  A    between atoms: _260  and  _261
REMARK  112  A    between atoms: _261  and  _262
REMARK  113  A    between atoms: _264  and  _266
REMARK  114  A    between atoms: _266  and  _267
REMARK  115  A    between atoms: _266  and  _269
REMARK  116  A    between atoms: _269  and  _270
REMARK  117  A    between atoms: _270  and  _271
REMARK  118  A    between atoms: _274  and  _276
REMARK  119  A    between atoms: _276  and  _277
REMARK  120  A    between atoms: _276  and  _279
REMARK  121  A    between atoms: _279  and  _280
REMARK  122  A    between atoms: _280  and  _281
REMARK  123  A    between atoms: _281  and  _282
REMARK  124  A    between atoms: _282  and  _283
REMARK  125  A    between atoms: _287  and  _289
REMARK  126  A    between atoms: _289  and  _290
REMARK                            x       y       z     vdW  Elec       q    Type
REMARK                         _______ _______ _______ _____ _____    ______ ____
ROOT
ATOM      1  O   HOH     1      17.031  -3.829  31.468  0.00  0.00    +0.000 OA
ENDROOT
TORSDOF 0
REMARK  Name = ../refined-set-2016/3b5j/3b5j_pocket.pdb
REMARK  126 active torsions:
REMARK  status: ('A' for Active; 'I' for Inactive)
REMARK    1  A    between atoms: _1  and  _3
REMARK    2  A    between atoms: _3  and  _4
REMARK    3  A    between atoms: _3  and  _6
REMARK    4  A    between atoms: _6  and  _7
REMARK    5  A    between atoms: _13  and  _15
REMARK    6  A    between atoms: _15  and  _16
REMARK    7  A    between atoms: _15  and  _18
REMARK    8  A    between atoms: _18  and  _19
REMARK    9  A    between atoms: _19  and  _20
REMARK   10  A    between atoms: _20  and  _21
REMARK   11  A    between atoms: _30  and  _32
REMARK   12  A    between atoms: _32  and  _33
REMARK   13  A    between atoms: _32  and  _35
REMARK   14  A    between atoms: _35  and  _36
REMARK   15  A    between atoms: _41  and  _42
REMARK   16  A    between atoms: _44  and  _46
REMARK   17  A    between atoms: _46  and  _47
REMARK   18  A    between atoms: _46  and  _49
REMARK   19  A    between atoms: _49  and  _50
REMARK   20  A    between atoms: _50  and  _51
REMARK   21  A    between atoms: _51  and  _52
REMARK   22  A    between atoms: _52  and  _53
REMARK   23  A    between atoms: _57  and  _59
REMARK   24  A    between atoms: _59  and  _60
REMARK   25  A    between atoms: _59  and  _62
REMARK   26  A    between atoms: _62  and  _63
REMARK   27  A    between atoms: _66  and  _67
REMARK   28  A    between atoms: _72  and  _74
REMARK   29  A    between atoms: _74  and  _75
REMARK   30  A    between atoms: _74  and  _77
REMARK   31  A    between atoms: _80  and  _82
REMARK   32  A    between atoms: _82  and  _83
REMARK   33  A    between atoms: _82  and  _85
REMARK   34  A    between atoms: _85  and  _86
REMARK   35  A    between atoms: _89  and  _91
REMARK   36  A    between atoms: _91  and  _92
REMARK   37  A    between atoms: _91  and  _94
REMARK   38  A    between atoms: _94  and  _95
REMARK   39  A    between atoms: _98  and  _100
REMARK   40  A    between atoms: _100  and  _101
REMARK   41  A    between atoms: _100  and  _103
REMARK   42  A    between atoms: _103  and  _104
REMARK   43  A    between atoms: _107  and  _109
REMARK   44  A    between atoms: _109  and  _110
REMARK   45  A    between atoms: _109  and  _112
REMARK   46  A    between atoms: _115  and  _117
REMARK   47  A    between atoms: _117  and  _118
REMARK   48  A    between atoms: _120  and  _122
REMARK   49  A    between atoms: _122  and  _123
REMARK   50  A    between atoms: _122  and  _125
REMARK   51  A    between atoms: _125  and  _126
REMARK   52  A    between atoms: _126  and  _127
REMARK   53  A    between atoms: _127  and  _128
REMARK   54  A    between atoms: _137  and  _139
REMARK   55  A    between atoms: _139  and  _140
REMARK   56  A    between atoms: _143  and  _145
REMARK   57  A    between atoms: _145  and  _146
REMARK   58  A    between atoms: _148  and  _150
REMARK   59  A    between atoms: _150  and  _151
REMARK   60  A    between atoms: _150  and  _153
REMARK   61  A    between atoms: _153  and  _154
REMARK   62  A    between atoms: _156  and  _158
REMARK   63  A    between atoms: _158  and  _159
REMARK   64  A    between atoms: _161  and  _163
REMARK   65  A    between atoms: _163  and  _164
REMARK   66  A    between atoms: _163  and  _166
REMARK   67  A    between atoms: _166  and  _167
REMARK   68  A    between atoms: _167  and  _168
REMARK   69  A    between atoms: _168  and  _169
REMARK   70  A    between atoms: _169  and  _170
REMARK   71  A    between atoms: _174  and  _176
REMARK   72  A    between atoms: _176  and  _177
REMARK   73  A    between atoms: _176  and  _179
REMARK   74  A    between atoms: _179  and  _180
REMARK   75  A    between atoms: _182  and  _184
REMARK   76  A    between atoms: _184  and  _185
REMARK   77  A    between atoms: _184  and  _187
REMARK   78  A    between atoms: _187  and  _188
REMARK   79  A    between atoms: _191  and  _193
REMARK   80  A    between atoms: _193  and  _194
REMARK   81  A    between atoms: _193  and  _196
REMARK   82  A    between atoms: _196  and  _197
REMARK   83  A    between atoms: _200  and  _202
REMARK   84  A    between atoms: _202  and  _203
REMARK   85  A    between atoms: _202  and  _205
REMARK   86  A    between atoms: _205  and  _206
REMARK   87  A    between atoms: _209  and  _211
REMARK   88  A    between atoms: _211  and  _212
REMARK   89  A    between atoms: _211  and  _214
REMARK   90  A    between atoms: _214  and  _215
REMARK   91  A    between atoms: _215  and  _216
REMARK   92  A    between atoms: _216  and  _217
REMARK   93  A    between atoms: _217  and  _218
REMARK   94  A    between atoms: _222  and  _224
REMARK   95  A    between atoms: _224  and  _225
REMARK   96  A    between atoms: _224  and  _227
REMARK   97  A    between atoms: _227  and  _228
REMARK   98  A    between atoms: _233  and  _234
REMARK   99  A    between atoms: _236  and  _238
REMARK  100  A    between atoms: _238  and  _239
REMARK  101  A    between atoms: _238  and  _241
REMARK  102  A    between atoms: _241  and  _242
REMARK  103  A    between atoms: _242  and  _243
REMARK  104  A    between atoms: _246  and  _248
REMARK  105  A    between atoms: _248  and  _249
REMARK  106  A    between atoms: _248  and  _251
REMARK  107  A    between atoms: _251  and  _252
REMARK  108  A    between atoms: _255  and  _257
REMARK  109  A    between atoms: _257  and  _258
REMARK  110  A    between atoms: _257  and  _260
REMARK  111  A    between atoms: _260  and  _261
REMARK  112  A    between atoms: _261  and  _262
REMARK  113  A    between atoms: _264  and  _266
REMARK  114  A    between atoms: _266  and  _267
REMARK  115  A    between atoms: _266  and  _269
REMARK  116  A    between atoms: _269  and  _270
REMARK  117  A    between atoms: _270  and  _271
REMARK  118  A    between atoms: _274  and  _276
REMARK  119  A    between atoms: _276  and  _277
REMARK  120  A    between atoms: _276  and  _279
REMARK  121  A    between atoms: _279  and  _280
REMARK  122  A    between atoms: _280  and  _281
REMARK  123  A    between atoms: _281  and  _282
REMARK  124  A    between atoms: _282  and  _283
REMARK  125  A    between atoms: _287  and  _289
REMARK  126  A    between atoms: _289  and  _290
REMARK                            x       y       z     vdW  Elec       q    Type
REMARK                         _______ _______ _______ _____ _____    ______ ____
ROOT
ATOM      1  O   HOH     1      28.986  14.246  23.095  0.00  0.00    +0.000 OA
ENDROOT
TORSDOF 0
REMARK  Name = ../refined-set-2016/3b5j/3b5j_pocket.pdb
REMARK  126 active torsions:
REMARK  status: ('A' for Active; 'I' for Inactive)
REMARK    1  A    between atoms: _1  and  _3
REMARK    2  A    between atoms: _3  and  _4
REMARK    3  A    between atoms: _3  and  _6
REMARK    4  A    between atoms: _6  and  _7
REMARK    5  A    between atoms: _13  and  _15
REMARK    6  A    between atoms: _15  and  _16
REMARK    7  A    between atoms: _15  and  _18
REMARK    8  A    between atoms: _18  and  _19
REMARK    9  A    between atoms: _19  and  _20
REMARK   10  A    between atoms: _20  and  _21
REMARK   11  A    between atoms: _30  and  _32
REMARK   12  A    between atoms: _32  and  _33
REMARK   13  A    between atoms: _32  and  _35
REMARK   14  A    between atoms: _35  and  _36
REMARK   15  A    between atoms: _41  and  _42
REMARK   16  A    between atoms: _44  and  _46
REMARK   17  A    between atoms: _46  and  _47
REMARK   18  A    between atoms: _46  and  _49
REMARK   19  A    between atoms: _49  and  _50
REMARK   20  A    between atoms: _50  and  _51
REMARK   21  A    between atoms: _51  and  _52
REMARK   22  A    between atoms: _52  and  _53
REMARK   23  A    between atoms: _57  and  _59
REMARK   24  A    between atoms: _59  and  _60
REMARK   25  A    between atoms: _59  and  _62
REMARK   26  A    between atoms: _62  and  _63
REMARK   27  A    between atoms: _66  and  _67
REMARK   28  A    between atoms: _72  and  _74
REMARK   29  A    between atoms: _74  and  _75
REMARK   30  A    between atoms: _74  and  _77
REMARK   31  A    between atoms: _80  and  _82
REMARK   32  A    between atoms: _82  and  _83
REMARK   33  A    between atoms: _82  and  _85
REMARK   34  A    between atoms: _85  and  _86
REMARK   35  A    between atoms: _89  and  _91
REMARK   36  A    between atoms: _91  and  _92
REMARK   37  A    between atoms: _91  and  _94
REMARK   38  A    between atoms: _94  and  _95
REMARK   39  A    between atoms: _98  and  _100
REMARK   40  A    between atoms: _100  and  _101
REMARK   41  A    between atoms: _100  and  _103
REMARK   42  A    between atoms: _103  and  _104
REMARK   43  A    between atoms: _107  and  _109
REMARK   44  A    between atoms: _109  and  _110
REMARK   45  A    between atoms: _109  and  _112
REMARK   46  A    between atoms: _115  and  _117
REMARK   47  A    between atoms: _117  and  _118
REMARK   48  A    between atoms: _120  and  _122
REMARK   49  A    between atoms: _122  and  _123
REMARK   50  A    between atoms: _122  and  _125
REMARK   51  A    between atoms: _125  and  _126
REMARK   52  A    between atoms: _126  and  _127
REMARK   53  A    between atoms: _127  and  _128
REMARK   54  A    between atoms: _137  and  _139
REMARK   55  A    between atoms: _139  and  _140
REMARK   56  A    between atoms: _143  and  _145
REMARK   57  A    between atoms: _145  and  _146
REMARK   58  A    between atoms: _148  and  _150
REMARK   59  A    between atoms: _150  and  _151
REMARK   60  A    between atoms: _150  and  _153
REMARK   61  A    between atoms: _153  and  _154
REMARK   62  A    between atoms: _156  and  _158
REMARK   63  A    between atoms: _158  and  _159
REMARK   64  A    between atoms: _161  and  _163
REMARK   65  A    between atoms: _163  and  _164
REMARK   66  A    between atoms: _163  and  _166
REMARK   67  A    between atoms: _166  and  _167
REMARK   68  A    between atoms: _167  and  _168
REMARK   69  A    between atoms: _168  and  _169
REMARK   70  A    between atoms: _169  and  _170
REMARK   71  A    between atoms: _174  and  _176
REMARK   72  A    between atoms: _176  and  _177
REMARK   73  A    between atoms: _176  and  _179
REMARK   74  A    between atoms: _179  and  _180
REMARK   75  A    between atoms: _182  and  _184
REMARK   76  A    between atoms: _184  and  _185
REMARK   77  A    between atoms: _184  and  _187
REMARK   78  A    between atoms: _187  and  _188
REMARK   79  A    between atoms: _191  and  _193
REMARK   80  A    between atoms: _193  and  _194
REMARK   81  A    between atoms: _193  and  _196
REMARK   82  A    between atoms: _196  and  _197
REMARK   83  A    between atoms: _200  and  _202
REMARK   84  A    between atoms: _202  and  _203
REMARK   85  A    between atoms: _202  and  _205
REMARK   86  A    between atoms: _205  and  _206
REMARK   87  A    between atoms: _209  and  _211
REMARK   88  A    between atoms: _211  and  _212
REMARK   89  A    between atoms: _211  and  _214
REMARK   90  A    between atoms: _214  and  _215
REMARK   91  A    between atoms: _215  and  _216
REMARK   92  A    between atoms: _216  and  _217
REMARK   93  A    between atoms: _217  and  _218
REMARK   94  A    between atoms: _222  and  _224
REMARK   95  A    between atoms: _224  and  _225
REMARK   96  A    between atoms: _224  and  _227
REMARK   97  A    between atoms: _227  and  _228
REMARK   98  A    between atoms: _233  and  _234
REMARK   99  A    between atoms: _236  and  _238
REMARK  100  A    between atoms: _238  and  _239
REMARK  101  A    between atoms: _238  and  _241
REMARK  102  A    between atoms: _241  and  _242
REMARK  103  A    between atoms: _242  and  _243
REMARK  104  A    between atoms: _246  and  _248
REMARK  105  A    between atoms: _248  and  _249
REMARK  106  A    between atoms: _248  and  _251
REMARK  107  A    between atoms: _251  and  _252
REMARK  108  A    between atoms: _255  and  _257
REMARK  109  A    between atoms: _257  and  _258
REMARK  110  A    between atoms: _257  and  _260
REMARK  111  A    between atoms: _260  and  _261
REMARK  112  A    between atoms: _261  and  _262
REMARK  113  A    between atoms: _264  and  _266
REMARK  114  A    between atoms: _266  and  _267
REMARK  115  A    between atoms: _266  and  _269
REMARK  116  A    between atoms: _269  and  _270
REMARK  117  A    between atoms: _270  and  _271
REMARK  118  A    between atoms: _274  and  _276
REMARK  119  A    between atoms: _276  and  _277
REMARK  120  A    between atoms: _276  and  _279
REMARK  121  A    between atoms: _279  and  _280
REMARK  122  A    between atoms: _280  and  _281
REMARK  123  A    between atoms: _281  and  _282
REMARK  124  A    between atoms: _282  and  _283
REMARK  125  A    between atoms: _287  and  _289
REMARK  126  A    between atoms: _289  and  _290
REMARK                            x       y       z     vdW  Elec       q    Type
REMARK                         _______ _______ _______ _____ _____    ______ ____
ROOT
ATOM      1  O   HOH     1      31.312  10.865  34.306  0.00  0.00    +0.000 OA
ENDROOT
TORSDOF 0
REMARK  Name = ../refined-set-2016/3b5j/3b5j_pocket.pdb
REMARK  126 active torsions:
REMARK  status: ('A' for Active; 'I' for Inactive)
REMARK    1  A    between atoms: _1  and  _3
REMARK    2  A    between atoms: _3  and  _4
REMARK    3  A    between atoms: _3  and  _6
REMARK    4  A    between atoms: _6  and  _7
REMARK    5  A    between atoms: _13  and  _15
REMARK    6  A    between atoms: _15  and  _16
REMARK    7  A    between atoms: _15  and  _18
REMARK    8  A    between atoms: _18  and  _19
REMARK    9  A    between atoms: _19  and  _20
REMARK   10  A    between atoms: _20  and  _21
REMARK   11  A    between atoms: _30  and  _32
REMARK   12  A    between atoms: _32  and  _33
REMARK   13  A    between atoms: _32  and  _35
REMARK   14  A    between atoms: _35  and  _36
REMARK   15  A    between atoms: _41  and  _42
REMARK   16  A    between atoms: _44  and  _46
REMARK   17  A    between atoms: _46  and  _47
REMARK   18  A    between atoms: _46  and  _49
REMARK   19  A    between atoms: _49  and  _50
REMARK   20  A    between atoms: _50  and  _51
REMARK   21  A    between atoms: _51  and  _52
REMARK   22  A    between atoms: _52  and  _53
REMARK   23  A    between atoms: _57  and  _59
REMARK   24  A    between atoms: _59  and  _60
REMARK   25  A    between atoms: _59  and  _62
REMARK   26  A    between atoms: _62  and  _63
REMARK   27  A    between atoms: _66  and  _67
REMARK   28  A    between atoms: _72  and  _74
REMARK   29  A    between atoms: _74  and  _75
REMARK   30  A    between atoms: _74  and  _77
REMARK   31  A    between atoms: _80  and  _82
REMARK   32  A    between atoms: _82  and  _83
REMARK   33  A    between atoms: _82  and  _85
REMARK   34  A    between atoms: _85  and  _86
REMARK   35  A    between atoms: _89  and  _91
REMARK   36  A    between atoms: _91  and  _92
REMARK   37  A    between atoms: _91  and  _94
REMARK   38  A    between atoms: _94  and  _95
REMARK   39  A    between atoms: _98  and  _100
REMARK   40  A    between atoms: _100  and  _101
REMARK   41  A    between atoms: _100  and  _103
REMARK   42  A    between atoms: _103  and  _104
REMARK   43  A    between atoms: _107  and  _109
REMARK   44  A    between atoms: _109  and  _110
REMARK   45  A    between atoms: _109  and  _112
REMARK   46  A    between atoms: _115  and  _117
REMARK   47  A    between atoms: _117  and  _118
REMARK   48  A    between atoms: _120  and  _122
REMARK   49  A    between atoms: _122  and  _123
REMARK   50  A    between atoms: _122  and  _125
REMARK   51  A    between atoms: _125  and  _126
REMARK   52  A    between atoms: _126  and  _127
REMARK   53  A    between atoms: _127  and  _128
REMARK   54  A    between atoms: _137  and  _139
REMARK   55  A    between atoms: _139  and  _140
REMARK   56  A    between atoms: _143  and  _145
REMARK   57  A    between atoms: _145  and  _146
REMARK   58  A    between atoms: _148  and  _150
REMARK   59  A    between atoms: _150  and  _151
REMARK   60  A    between atoms: _150  and  _153
REMARK   61  A    between atoms: _153  and  _154
REMARK   62  A    between atoms: _156  and  _158
REMARK   63  A    between atoms: _158  and  _159
REMARK   64  A    between atoms: _161  and  _163
REMARK   65  A    between atoms: _163  and  _164
REMARK   66  A    between atoms: _163  and  _166
REMARK   67  A    between atoms: _166  and  _167
REMARK   68  A    between atoms: _167  and  _168
REMARK   69  A    between atoms: _168  and  _169
REMARK   70  A    between atoms: _169  and  _170
REMARK   71  A    between atoms: _174  and  _176
REMARK   72  A    between atoms: _176  and  _177
REMARK   73  A    between atoms: _176  and  _179
REMARK   74  A    between atoms: _179  and  _180
REMARK   75  A    between atoms: _182  and  _184
REMARK   76  A    between atoms: _184  and  _185
REMARK   77  A    between atoms: _184  and  _187
REMARK   78  A    between atoms: _187  and  _188
REMARK   79  A    between atoms: _191  and  _193
REMARK   80  A    between atoms: _193  and  _194
REMARK   81  A    between atoms: _193  and  _196
REMARK   82  A    between atoms: _196  and  _197
REMARK   83  A    between atoms: _200  and  _202
REMARK   84  A    between atoms: _202  and  _203
REMARK   85  A    between atoms: _202  and  _205
REMARK   86  A    between atoms: _205  and  _206
REMARK   87  A    between atoms: _209  and  _211
REMARK   88  A    between atoms: _211  and  _212
REMARK   89  A    between atoms: _211  and  _214
REMARK   90  A    between atoms: _214  and  _215
REMARK   91  A    between atoms: _215  and  _216
REMARK   92  A    between atoms: _216  and  _217
REMARK   93  A    between atoms: _217  and  _218
REMARK   94  A    between atoms: _222  and  _224
REMARK   95  A    between atoms: _224  and  _225
REMARK   96  A    between atoms: _224  and  _227
REMARK   97  A    between atoms: _227  and  _228
REMARK   98  A    between atoms: _233  and  _234
REMARK   99  A    between atoms: _236  and  _238
REMARK  100  A    between atoms: _238  and  _239
REMARK  101  A    between atoms: _238  and  _241
REMARK  102  A    between atoms: _241  and  _242
REMARK  103  A    between atoms: _242  and  _243
REMARK  104  A    between atoms: _246  and  _248
REMARK  105  A    between atoms: _248  and  _249
REMARK  106  A    between atoms: _248  and  _251
REMARK  107  A    between atoms: _251  and  _252
REMARK  108  A    between atoms: _255  and  _257
REMARK  109  A    between atoms: _257  and  _258
REMARK  110  A    between atoms: _257  and  _260
REMARK  111  A    between atoms: _260  and  _261
REMARK  112  A    between atoms: _261  and  _262
REMARK  113  A    between atoms: _264  and  _266
REMARK  114  A    between atoms: _266  and  _267
REMARK  115  A    between atoms: _266  and  _269
REMARK  116  A    between atoms: _269  and  _270
REMARK  117  A    between atoms: _270  and  _271
REMARK  118  A    between atoms: _274  and  _276
REMARK  119  A    between atoms: _276  and  _277
REMARK  120  A    between atoms: _276  and  _279
REMARK  121  A    between atoms: _279  and  _280
REMARK  122  A    between atoms: _280  and  _281
REMARK  123  A    between atoms: _281  and  _282
REMARK  124  A    between atoms: _282  and  _283
REMARK  125  A    between atoms: _287  and  _289
REMARK  126  A    between atoms: _289  and  _290
REMARK                            x       y       z     vdW  Elec       q    Type
REMARK                         _______ _______ _______ _____ _____    ______ ____
ROOT
ATOM      1  O   HOH     1      25.396  -1.156  35.921  0.00  0.00    +0.000 OA
ENDROOT
TORSDOF 0
REMARK  Name = ../refined-set-2016/3b5j/3b5j_pocket.pdb
REMARK  126 active torsions:
REMARK  status: ('A' for Active; 'I' for Inactive)
REMARK    1  A    between atoms: _1  and  _3
REMARK    2  A    between atoms: _3  and  _4
REMARK    3  A    between atoms: _3  and  _6
REMARK    4  A    between atoms: _6  and  _7
REMARK    5  A    between atoms: _13  and  _15
REMARK    6  A    between atoms: _15  and  _16
REMARK    7  A    between atoms: _15  and  _18
REMARK    8  A    between atoms: _18  and  _19
REMARK    9  A    between atoms: _19  and  _20
REMARK   10  A    between atoms: _20  and  _21
REMARK   11  A    between atoms: _30  and  _32
REMARK   12  A    between atoms: _32  and  _33
REMARK   13  A    between atoms: _32  and  _35
REMARK   14  A    between atoms: _35  and  _36
REMARK   15  A    between atoms: _41  and  _42
REMARK   16  A    between atoms: _44  and  _46
REMARK   17  A    between atoms: _46  and  _47
REMARK   18  A    between atoms: _46  and  _49
REMARK   19  A    between atoms: _49  and  _50
REMARK   20  A    between atoms: _50  and  _51
REMARK   21  A    between atoms: _51  and  _52
REMARK   22  A    between atoms: _52  and  _53
REMARK   23  A    between atoms: _57  and  _59
REMARK   24  A    between atoms: _59  and  _60
REMARK   25  A    between atoms: _59  and  _62
REMARK   26  A    between atoms: _62  and  _63
REMARK   27  A    between atoms: _66  and  _67
REMARK   28  A    between atoms: _72  and  _74
REMARK   29  A    between atoms: _74  and  _75
REMARK   30  A    between atoms: _74  and  _77
REMARK   31  A    between atoms: _80  and  _82
REMARK   32  A    between atoms: _82  and  _83
REMARK   33  A    between atoms: _82  and  _85
REMARK   34  A    between atoms: _85  and  _86
REMARK   35  A    between atoms: _89  and  _91
REMARK   36  A    between atoms: _91  and  _92
REMARK   37  A    between atoms: _91  and  _94
REMARK   38  A    between atoms: _94  and  _95
REMARK   39  A    between atoms: _98  and  _100
REMARK   40  A    between atoms: _100  and  _101
REMARK   41  A    between atoms: _100  and  _103
REMARK   42  A    between atoms: _103  and  _104
REMARK   43  A    between atoms: _107  and  _109
REMARK   44  A    between atoms: _109  and  _110
REMARK   45  A    between atoms: _109  and  _112
REMARK   46  A    between atoms: _115  and  _117
REMARK   47  A    between atoms: _117  and  _118
REMARK   48  A    between atoms: _120  and  _122
REMARK   49  A    between atoms: _122  and  _123
REMARK   50  A    between atoms: _122  and  _125
REMARK   51  A    between atoms: _125  and  _126
REMARK   52  A    between atoms: _126  and  _127
REMARK   53  A    between atoms: _127  and  _128
REMARK   54  A    between atoms: _137  and  _139
REMARK   55  A    between atoms: _139  and  _140
REMARK   56  A    between atoms: _143  and  _145
REMARK   57  A    between atoms: _145  and  _146
REMARK   58  A    between atoms: _148  and  _150
REMARK   59  A    between atoms: _150  and  _151
REMARK   60  A    between atoms: _150  and  _153
REMARK   61  A    between atoms: _153  and  _154
REMARK   62  A    between atoms: _156  and  _158
REMARK   63  A    between atoms: _158  and  _159
REMARK   64  A    between atoms: _161  and  _163
REMARK   65  A    between atoms: _163  and  _164
REMARK   66  A    between atoms: _163  and  _166
REMARK   67  A    between atoms: _166  and  _167
REMARK   68  A    between atoms: _167  and  _168
REMARK   69  A    between atoms: _168  and  _169
REMARK   70  A    between atoms: _169  and  _170
REMARK   71  A    between atoms: _174  and  _176
REMARK   72  A    between atoms: _176  and  _177
REMARK   73  A    between atoms: _176  and  _179
REMARK   74  A    between atoms: _179  and  _180
REMARK   75  A    between atoms: _182  and  _184
REMARK   76  A    between atoms: _184  and  _185
REMARK   77  A    between atoms: _184  and  _187
REMARK   78  A    between atoms: _187  and  _188
REMARK   79  A    between atoms: _191  and  _193
REMARK   80  A    between atoms: _193  and  _194
REMARK   81  A    between atoms: _193  and  _196
REMARK   82  A    between atoms: _196  and  _197
REMARK   83  A    between atoms: _200  and  _202
REMARK   84  A    between atoms: _202  and  _203
REMARK   85  A    between atoms: _202  and  _205
REMARK   86  A    between atoms: _205  and  _206
REMARK   87  A    between atoms: _209  and  _211
REMARK   88  A    between atoms: _211  and  _212
REMARK   89  A    between atoms: _211  and  _214
REMARK   90  A    between atoms: _214  and  _215
REMARK   91  A    between atoms: _215  and  _216
REMARK   92  A    between atoms: _216  and  _217
REMARK   93  A    between atoms: _217  and  _218
REMARK   94  A    between atoms: _222  and  _224
REMARK   95  A    between atoms: _224  and  _225
REMARK   96  A    between atoms: _224  and  _227
REMARK   97  A    between atoms: _227  and  _228
REMARK   98  A    between atoms: _233  and  _234
REMARK   99  A    between atoms: _236  and  _238
REMARK  100  A    between atoms: _238  and  _239
REMARK  101  A    between atoms: _238  and  _241
REMARK  102  A    between atoms: _241  and  _242
REMARK  103  A    between atoms: _242  and  _243
REMARK  104  A    between atoms: _246  and  _248
REMARK  105  A    between atoms: _248  and  _249
REMARK  106  A    between atoms: _248  and  _251
REMARK  107  A    between atoms: _251  and  _252
REMARK  108  A    between atoms: _255  and  _257
REMARK  109  A    between atoms: _257  and  _258
REMARK  110  A    between atoms: _257  and  _260
REMARK  111  A    between atoms: _260  and  _261
REMARK  112  A    between atoms: _261  and  _262
REMARK  113  A    between atoms: _264  and  _266
REMARK  114  A    between atoms: _266  and  _267
REMARK  115  A    between atoms: _266  and  _269
REMARK  116  A    between atoms: _269  and  _270
REMARK  117  A    between atoms: _270  and  _271
REMARK  118  A    between atoms: _274  and  _276
REMARK  119  A    between atoms: _276  and  _277
REMARK  120  A    between atoms: _276  and  _279
REMARK  121  A    between atoms: _279  and  _280
REMARK  122  A    between atoms: _280  and  _281
REMARK  123  A    between atoms: _281  and  _282
REMARK  124  A    between atoms: _282  and  _283
REMARK  125  A    between atoms: _287  and  _289
REMARK  126  A    between atoms: _289  and  _290
REMARK                            x       y       z     vdW  Elec       q    Type
REMARK                         _______ _______ _______ _____ _____    ______ ____
ROOT
ATOM      1  O   HOH     1      18.726   4.250  33.664  0.00  0.00    +0.000 OA
ENDROOT
TORSDOF 0
REMARK  Name = ../refined-set-2016/3b5j/3b5j_pocket.pdb
REMARK  126 active torsions:
REMARK  status: ('A' for Active; 'I' for Inactive)
REMARK    1  A    between atoms: _1  and  _3
REMARK    2  A    between atoms: _3  and  _4
REMARK    3  A    between atoms: _3  and  _6
REMARK    4  A    between atoms: _6  and  _7
REMARK    5  A    between atoms: _13  and  _15
REMARK    6  A    between atoms: _15  and  _16
REMARK    7  A    between atoms: _15  and  _18
REMARK    8  A    between atoms: _18  and  _19
REMARK    9  A    between atoms: _19  and  _20
REMARK   10  A    between atoms: _20  and  _21
REMARK   11  A    between atoms: _30  and  _32
REMARK   12  A    between atoms: _32  and  _33
REMARK   13  A    between atoms: _32  and  _35
REMARK   14  A    between atoms: _35  and  _36
REMARK   15  A    between atoms: _41  and  _42
REMARK   16  A    between atoms: _44  and  _46
REMARK   17  A    between atoms: _46  and  _47
REMARK   18  A    between atoms: _46  and  _49
REMARK   19  A    between atoms: _49  and  _50
REMARK   20  A    between atoms: _50  and  _51
REMARK   21  A    between atoms: _51  and  _52
REMARK   22  A    between atoms: _52  and  _53
REMARK   23  A    between atoms: _57  and  _59
REMARK   24  A    between atoms: _59  and  _60
REMARK   25  A    between atoms: _59  and  _62
REMARK   26  A    between atoms: _62  and  _63
REMARK   27  A    between atoms: _66  and  _67
REMARK   28  A    between atoms: _72  and  _74
REMARK   29  A    between atoms: _74  and  _75
REMARK   30  A    between atoms: _74  and  _77
REMARK   31  A    between atoms: _80  and  _82
REMARK   32  A    between atoms: _82  and  _83
REMARK   33  A    between atoms: _82  and  _85
REMARK   34  A    between atoms: _85  and  _86
REMARK   35  A    between atoms: _89  and  _91
REMARK   36  A    between atoms: _91  and  _92
REMARK   37  A    between atoms: _91  and  _94
REMARK   38  A    between atoms: _94  and  _95
REMARK   39  A    between atoms: _98  and  _100
REMARK   40  A    between atoms: _100  and  _101
REMARK   41  A    between atoms: _100  and  _103
REMARK   42  A    between atoms: _103  and  _104
REMARK   43  A    between atoms: _107  and  _109
REMARK   44  A    between atoms: _109  and  _110
REMARK   45  A    between atoms: _109  and  _112
REMARK   46  A    between atoms: _115  and  _117
REMARK   47  A    between atoms: _117  and  _118
REMARK   48  A    between atoms: _120  and  _122
REMARK   49  A    between atoms: _122  and  _123
REMARK   50  A    between atoms: _122  and  _125
REMARK   51  A    between atoms: _125  and  _126
REMARK   52  A    between atoms: _126  and  _127
REMARK   53  A    between atoms: _127  and  _128
REMARK   54  A    between atoms: _137  and  _139
REMARK   55  A    between atoms: _139  and  _140
REMARK   56  A    between atoms: _143  and  _145
REMARK   57  A    between atoms: _145  and  _146
REMARK   58  A    between atoms: _148  and  _150
REMARK   59  A    between atoms: _150  and  _151
REMARK   60  A    between atoms: _150  and  _153
REMARK   61  A    between atoms: _153  and  _154
REMARK   62  A    between atoms: _156  and  _158
REMARK   63  A    between atoms: _158  and  _159
REMARK   64  A    between atoms: _161  and  _163
REMARK   65  A    between atoms: _163  and  _164
REMARK   66  A    between atoms: _163  and  _166
REMARK   67  A    between atoms: _166  and  _167
REMARK   68  A    between atoms: _167  and  _168
REMARK   69  A    between atoms: _168  and  _169
REMARK   70  A    between atoms: _169  and  _170
REMARK   71  A    between atoms: _174  and  _176
REMARK   72  A    between atoms: _176  and  _177
REMARK   73  A    between atoms: _176  and  _179
REMARK   74  A    between atoms: _179  and  _180
REMARK   75  A    between atoms: _182  and  _184
REMARK   76  A    between atoms: _184  and  _185
REMARK   77  A    between atoms: _184  and  _187
REMARK   78  A    between atoms: _187  and  _188
REMARK   79  A    between atoms: _191  and  _193
REMARK   80  A    between atoms: _193  and  _194
REMARK   81  A    between atoms: _193  and  _196
REMARK   82  A    between atoms: _196  and  _197
REMARK   83  A    between atoms: _200  and  _202
REMARK   84  A    between atoms: _202  and  _203
REMARK   85  A    between atoms: _202  and  _205
REMARK   86  A    between atoms: _205  and  _206
REMARK   87  A    between atoms: _209  and  _211
REMARK   88  A    between atoms: _211  and  _212
REMARK   89  A    between atoms: _211  and  _214
REMARK   90  A    between atoms: _214  and  _215
REMARK   91  A    between atoms: _215  and  _216
REMARK   92  A    between atoms: _216  and  _217
REMARK   93  A    between atoms: _217  and  _218
REMARK   94  A    between atoms: _222  and  _224
REMARK   95  A    between atoms: _224  and  _225
REMARK   96  A    between atoms: _224  and  _227
REMARK   97  A    between atoms: _227  and  _228
REMARK   98  A    between atoms: _233  and  _234
REMARK   99  A    between atoms: _236  and  _238
REMARK  100  A    between atoms: _238  and  _239
REMARK  101  A    between atoms: _238  and  _241
REMARK  102  A    between atoms: _241  and  _242
REMARK  103  A    between atoms: _242  and  _243
REMARK  104  A    between atoms: _246  and  _248
REMARK  105  A    between atoms: _248  and  _249
REMARK  106  A    between atoms: _248  and  _251
REMARK  107  A    between atoms: _251  and  _252
REMARK  108  A    between atoms: _255  and  _257
REMARK  109  A    between atoms: _257  and  _258
REMARK  110  A    between atoms: _257  and  _260
REMARK  111  A    between atoms: _260  and  _261
REMARK  112  A    between atoms: _261  and  _262
REMARK  113  A    between atoms: _264  and  _266
REMARK  114  A    between atoms: _266  and  _267
REMARK  115  A    between atoms: _266  and  _269
REMARK  116  A    between atoms: _269  and  _270
REMARK  117  A    between atoms: _270  and  _271
REMARK  118  A    between atoms: _274  and  _276
REMARK  119  A    between atoms: _276  and  _277
REMARK  120  A    between atoms: _276  and  _279
REMARK  121  A    between atoms: _279  and  _280
REMARK  122  A    between atoms: _280  and  _281
REMARK  123  A    between atoms: _281  and  _282
REMARK  124  A    between atoms: _282  and  _283
REMARK  125  A    between atoms: _287  and  _289
REMARK  126  A    between atoms: _289  and  _290
REMARK                            x       y       z     vdW  Elec       q    Type
REMARK                         _______ _______ _______ _____ _____    ______ ____
ROOT
ATOM      1  O   HOH     1      23.310   5.979  30.344  0.00  0.00    +0.000 OA
ENDROOT
TORSDOF 0
REMARK  Name = ../refined-set-2016/3b5j/3b5j_pocket.pdb
REMARK  126 active torsions:
REMARK  status: ('A' for Active; 'I' for Inactive)
REMARK    1  A    between atoms: _1  and  _3
REMARK    2  A    between atoms: _3  and  _4
REMARK    3  A    between atoms: _3  and  _6
REMARK    4  A    between atoms: _6  and  _7
REMARK    5  A    between atoms: _13  and  _15
REMARK    6  A    between atoms: _15  and  _16
REMARK    7  A    between atoms: _15  and  _18
REMARK    8  A    between atoms: _18  and  _19
REMARK    9  A    between atoms: _19  and  _20
REMARK   10  A    between atoms: _20  and  _21
REMARK   11  A    between atoms: _30  and  _32
REMARK   12  A    between atoms: _32  and  _33
REMARK   13  A    between atoms: _32  and  _35
REMARK   14  A    between atoms: _35  and  _36
REMARK   15  A    between atoms: _41  and  _42
REMARK   16  A    between atoms: _44  and  _46
REMARK   17  A    between atoms: _46  and  _47
REMARK   18  A    between atoms: _46  and  _49
REMARK   19  A    between atoms: _49  and  _50
REMARK   20  A    between atoms: _50  and  _51
REMARK   21  A    between atoms: _51  and  _52
REMARK   22  A    between atoms: _52  and  _53
REMARK   23  A    between atoms: _57  and  _59
REMARK   24  A    between atoms: _59  and  _60
REMARK   25  A    between atoms: _59  and  _62
REMARK   26  A    between atoms: _62  and  _63
REMARK   27  A    between atoms: _66  and  _67
REMARK   28  A    between atoms: _72  and  _74
REMARK   29  A    between atoms: _74  and  _75
REMARK   30  A    between atoms: _74  and  _77
REMARK   31  A    between atoms: _80  and  _82
REMARK   32  A    between atoms: _82  and  _83
REMARK   33  A    between atoms: _82  and  _85
REMARK   34  A    between atoms: _85  and  _86
REMARK   35  A    between atoms: _89  and  _91
REMARK   36  A    between atoms: _91  and  _92
REMARK   37  A    between atoms: _91  and  _94
REMARK   38  A    between atoms: _94  and  _95
REMARK   39  A    between atoms: _98  and  _100
REMARK   40  A    between atoms: _100  and  _101
REMARK   41  A    between atoms: _100  and  _103
REMARK   42  A    between atoms: _103  and  _104
REMARK   43  A    between atoms: _107  and  _109
REMARK   44  A    between atoms: _109  and  _110
REMARK   45  A    between atoms: _109  and  _112
REMARK   46  A    between atoms: _115  and  _117
REMARK   47  A    between atoms: _117  and  _118
REMARK   48  A    between atoms: _120  and  _122
REMARK   49  A    between atoms: _122  and  _123
REMARK   50  A    between atoms: _122  and  _125
REMARK   51  A    between atoms: _125  and  _126
REMARK   52  A    between atoms: _126  and  _127
REMARK   53  A    between atoms: _127  and  _128
REMARK   54  A    between atoms: _137  and  _139
REMARK   55  A    between atoms: _139  and  _140
REMARK   56  A    between atoms: _143  and  _145
REMARK   57  A    between atoms: _145  and  _146
REMARK   58  A    between atoms: _148  and  _150
REMARK   59  A    between atoms: _150  and  _151
REMARK   60  A    between atoms: _150  and  _153
REMARK   61  A    between atoms: _153  and  _154
REMARK   62  A    between atoms: _156  and  _158
REMARK   63  A    between atoms: _158  and  _159
REMARK   64  A    between atoms: _161  and  _163
REMARK   65  A    between atoms: _163  and  _164
REMARK   66  A    between atoms: _163  and  _166
REMARK   67  A    between atoms: _166  and  _167
REMARK   68  A    between atoms: _167  and  _168
REMARK   69  A    between atoms: _168  and  _169
REMARK   70  A    between atoms: _169  and  _170
REMARK   71  A    between atoms: _174  and  _176
REMARK   72  A    between atoms: _176  and  _177
REMARK   73  A    between atoms: _176  and  _179
REMARK   74  A    between atoms: _179  and  _180
REMARK   75  A    between atoms: _182  and  _184
REMARK   76  A    between atoms: _184  and  _185
REMARK   77  A    between atoms: _184  and  _187
REMARK   78  A    between atoms: _187  and  _188
REMARK   79  A    between atoms: _191  and  _193
REMARK   80  A    between atoms: _193  and  _194
REMARK   81  A    between atoms: _193  and  _196
REMARK   82  A    between atoms: _196  and  _197
REMARK   83  A    between atoms: _200  and  _202
REMARK   84  A    between atoms: _202  and  _203
REMARK   85  A    between atoms: _202  and  _205
REMARK   86  A    between atoms: _205  and  _206
REMARK   87  A    between atoms: _209  and  _211
REMARK   88  A    between atoms: _211  and  _212
REMARK   89  A    between atoms: _211  and  _214
REMARK   90  A    between atoms: _214  and  _215
REMARK   91  A    between atoms: _215  and  _216
REMARK   92  A    between atoms: _216  and  _217
REMARK   93  A    between atoms: _217  and  _218
REMARK   94  A    between atoms: _222  and  _224
REMARK   95  A    between atoms: _224  and  _225
REMARK   96  A    between atoms: _224  and  _227
REMARK   97  A    between atoms: _227  and  _228
REMARK   98  A    between atoms: _233  and  _234
REMARK   99  A    between atoms: _236  and  _238
REMARK  100  A    between atoms: _238  and  _239
REMARK  101  A    between atoms: _238  and  _241
REMARK  102  A    between atoms: _241  and  _242
REMARK  103  A    between atoms: _242  and  _243
REMARK  104  A    between atoms: _246  and  _248
REMARK  105  A    between atoms: _248  and  _249
REMARK  106  A    between atoms: _248  and  _251
REMARK  107  A    between atoms: _251  and  _252
REMARK  108  A    between atoms: _255  and  _257
REMARK  109  A    between atoms: _257  and  _258
REMARK  110  A    between atoms: _257  and  _260
REMARK  111  A    between atoms: _260  and  _261
REMARK  112  A    between atoms: _261  and  _262
REMARK  113  A    between atoms: _264  and  _266
REMARK  114  A    between atoms: _266  and  _267
REMARK  115  A    between atoms: _266  and  _269
REMARK  116  A    between atoms: _269  and  _270
REMARK  117  A    between atoms: _270  and  _271
REMARK  118  A    between atoms: _274  and  _276
REMARK  119  A    between atoms: _276  and  _277
REMARK  120  A    between atoms: _276  and  _279
REMARK  121  A    between atoms: _279  and  _280
REMARK  122  A    between atoms: _280  and  _281
REMARK  123  A    between atoms: _281  and  _282
REMARK  124  A    between atoms: _282  and  _283
REMARK  125  A    between atoms: _287  and  _289
REMARK  126  A    between atoms: _289  and  _290
REMARK                            x       y       z     vdW  Elec       q    Type
REMARK                         _______ _______ _______ _____ _____    ______ ____
ROOT
ATOM      1  O   HOH     1      27.990  10.115  39.083  0.00  0.00    +0.000 OA
ENDROOT
TORSDOF 0
REMARK  Name = ../refined-set-2016/3b5j/3b5j_pocket.pdb
REMARK  126 active torsions:
REMARK  status: ('A' for Active; 'I' for Inactive)
REMARK    1  A    between atoms: _1  and  _3
REMARK    2  A    between atoms: _3  and  _4
REMARK    3  A    between atoms: _3  and  _6
REMARK    4  A    between atoms: _6  and  _7
REMARK    5  A    between atoms: _13  and  _15
REMARK    6  A    between atoms: _15  and  _16
REMARK    7  A    between atoms: _15  and  _18
REMARK    8  A    between atoms: _18  and  _19
REMARK    9  A    between atoms: _19  and  _20
REMARK   10  A    between atoms: _20  and  _21
REMARK   11  A    between atoms: _30  and  _32
REMARK   12  A    between atoms: _32  and  _33
REMARK   13  A    between atoms: _32  and  _35
REMARK   14  A    between atoms: _35  and  _36
REMARK   15  A    between atoms: _41  and  _42
REMARK   16  A    between atoms: _44  and  _46
REMARK   17  A    between atoms: _46  and  _47
REMARK   18  A    between atoms: _46  and  _49
REMARK   19  A    between atoms: _49  and  _50
REMARK   20  A    between atoms: _50  and  _51
REMARK   21  A    between atoms: _51  and  _52
REMARK   22  A    between atoms: _52  and  _53
REMARK   23  A    between atoms: _57  and  _59
REMARK   24  A    between atoms: _59  and  _60
REMARK   25  A    between atoms: _59  and  _62
REMARK   26  A    between atoms: _62  and  _63
REMARK   27  A    between atoms: _66  and  _67
REMARK   28  A    between atoms: _72  and  _74
REMARK   29  A    between atoms: _74  and  _75
REMARK   30  A    between atoms: _74  and  _77
REMARK   31  A    between atoms: _80  and  _82
REMARK   32  A    between atoms: _82  and  _83
REMARK   33  A    between atoms: _82  and  _85
REMARK   34  A    between atoms: _85  and  _86
REMARK   35  A    between atoms: _89  and  _91
REMARK   36  A    between atoms: _91  and  _92
REMARK   37  A    between atoms: _91  and  _94
REMARK   38  A    between atoms: _94  and  _95
REMARK   39  A    between atoms: _98  and  _100
REMARK   40  A    between atoms: _100  and  _101
REMARK   41  A    between atoms: _100  and  _103
REMARK   42  A    between atoms: _103  and  _104
REMARK   43  A    between atoms: _107  and  _109
REMARK   44  A    between atoms: _109  and  _110
REMARK   45  A    between atoms: _109  and  _112
REMARK   46  A    between atoms: _115  and  _117
REMARK   47  A    between atoms: _117  and  _118
REMARK   48  A    between atoms: _120  and  _122
REMARK   49  A    between atoms: _122  and  _123
REMARK   50  A    between atoms: _122  and  _125
REMARK   51  A    between atoms: _125  and  _126
REMARK   52  A    between atoms: _126  and  _127
REMARK   53  A    between atoms: _127  and  _128
REMARK   54  A    between atoms: _137  and  _139
REMARK   55  A    between atoms: _139  and  _140
REMARK   56  A    between atoms: _143  and  _145
REMARK   57  A    between atoms: _145  and  _146
REMARK   58  A    between atoms: _148  and  _150
REMARK   59  A    between atoms: _150  and  _151
REMARK   60  A    between atoms: _150  and  _153
REMARK   61  A    between atoms: _153  and  _154
REMARK   62  A    between atoms: _156  and  _158
REMARK   63  A    between atoms: _158  and  _159
REMARK   64  A    between atoms: _161  and  _163
REMARK   65  A    between atoms: _163  and  _164
REMARK   66  A    between atoms: _163  and  _166
REMARK   67  A    between atoms: _166  and  _167
REMARK   68  A    between atoms: _167  and  _168
REMARK   69  A    between atoms: _168  and  _169
REMARK   70  A    between atoms: _169  and  _170
REMARK   71  A    between atoms: _174  and  _176
REMARK   72  A    between atoms: _176  and  _177
REMARK   73  A    between atoms: _176  and  _179
REMARK   74  A    between atoms: _179  and  _180
REMARK   75  A    between atoms: _182  and  _184
REMARK   76  A    between atoms: _184  and  _185
REMARK   77  A    between atoms: _184  and  _187
REMARK   78  A    between atoms: _187  and  _188
REMARK   79  A    between atoms: _191  and  _193
REMARK   80  A    between atoms: _193  and  _194
REMARK   81  A    between atoms: _193  and  _196
REMARK   82  A    between atoms: _196  and  _197
REMARK   83  A    between atoms: _200  and  _202
REMARK   84  A    between atoms: _202  and  _203
REMARK   85  A    between atoms: _202  and  _205
REMARK   86  A    between atoms: _205  and  _206
REMARK   87  A    between atoms: _209  and  _211
REMARK   88  A    between atoms: _211  and  _212
REMARK   89  A    between atoms: _211  and  _214
REMARK   90  A    between atoms: _214  and  _215
REMARK   91  A    between atoms: _215  and  _216
REMARK   92  A    between atoms: _216  and  _217
REMARK   93  A    between atoms: _217  and  _218
REMARK   94  A    between atoms: _222  and  _224
REMARK   95  A    between atoms: _224  and  _225
REMARK   96  A    between atoms: _224  and  _227
REMARK   97  A    between atoms: _227  and  _228
REMARK   98  A    between atoms: _233  and  _234
REMARK   99  A    between atoms: _236  and  _238
REMARK  100  A    between atoms: _238  and  _239
REMARK  101  A    between atoms: _238  and  _241
REMARK  102  A    between atoms: _241  and  _242
REMARK  103  A    between atoms: _242  and  _243
REMARK  104  A    between atoms: _246  and  _248
REMARK  105  A    between atoms: _248  and  _249
REMARK  106  A    between atoms: _248  and  _251
REMARK  107  A    between atoms: _251  and  _252
REMARK  108  A    between atoms: _255  and  _257
REMARK  109  A    between atoms: _257  and  _258
REMARK  110  A    between atoms: _257  and  _260
REMARK  111  A    between atoms: _260  and  _261
REMARK  112  A    between atoms: _261  and  _262
REMARK  113  A    between atoms: _264  and  _266
REMARK  114  A    between atoms: _266  and  _267
REMARK  115  A    between atoms: _266  and  _269
REMARK  116  A    between atoms: _269  and  _270
REMARK  117  A    between atoms: _270  and  _271
REMARK  118  A    between atoms: _274  and  _276
REMARK  119  A    between atoms: _276  and  _277
REMARK  120  A    between atoms: _276  and  _279
REMARK  121  A    between atoms: _279  and  _280
REMARK  122  A    between atoms: _280  and  _281
REMARK  123  A    between atoms: _281  and  _282
REMARK  124  A    between atoms: _282  and  _283
REMARK  125  A    between atoms: _287  and  _289
REMARK  126  A    between atoms: _289  and  _290
REMARK                            x       y       z     vdW  Elec       q    Type
REMARK                         _______ _______ _______ _____ _____    ______ ____
ROOT
ATOM      1  O   HOH     1      17.578  -0.051  31.114  0.00  0.00    +0.000 OA
ENDROOT
TORSDOF 0
