REMARK  Name = ../refined-set-2016/2qd6/2qd6_pocket.pdb
REMARK  224 active torsions:
REMARK  status: ('A' for Active; 'I' for Inactive)
REMARK    1  A    between atoms: _1  and  _3
REMARK    2  A    between atoms: _3  and  _4
REMARK    3  A    between atoms: _3  and  _6
REMARK    4  A    between atoms: _6  and  _7
REMARK    5  A    between atoms: _7  and  _8
REMARK    6  A    between atoms: _8  and  _9
REMARK    7  A    between atoms: _18  and  _20
REMARK    8  A    between atoms: _20  and  _21
REMARK    9  A    between atoms: _20  and  _23
REMARK   10  A    between atoms: _23  and  _24
REMARK   11  A    between atoms: _27  and  _29
REMARK   12  A    between atoms: _29  and  _30
REMARK   13  A    between atoms: _29  and  _32
REMARK   14  A    between atoms: _32  and  _33
REMARK   15  A    between atoms: _36  and  _38
REMARK   16  A    between atoms: _38  and  _39
REMARK   17  A    between atoms: _38  and  _41
REMARK   18  A    between atoms: _41  and  _42
REMARK   19  A    between atoms: _45  and  _47
REMARK   20  A    between atoms: _47  and  _48
REMARK   21  A    between atoms: _47  and  _50
REMARK   22  A    between atoms: _50  and  _51
REMARK   23  A    between atoms: _54  and  _56
REMARK   24  A    between atoms: _56  and  _57
REMARK   25  A    between atoms: _59  and  _61
REMARK   26  A    between atoms: _61  and  _62
REMARK   27  A    between atoms: _65  and  _67
REMARK   28  A    between atoms: _67  and  _68
REMARK   29  A    between atoms: _67  and  _70
REMARK   30  A    between atoms: _70  and  _71
REMARK   31  A    between atoms: _74  and  _76
REMARK   32  A    between atoms: _76  and  _77
REMARK   33  A    between atoms: _76  and  _79
REMARK   34  A    between atoms: _79  and  _80
REMARK   35  A    between atoms: _83  and  _85
REMARK   36  A    between atoms: _85  and  _86
REMARK   37  A    between atoms: _85  and  _88
REMARK   38  A    between atoms: _88  and  _89
REMARK   39  A    between atoms: _92  and  _94
REMARK   40  A    between atoms: _94  and  _95
REMARK   41  A    between atoms: _94  and  _97
REMARK   42  A    between atoms: _100  and  _102
REMARK   43  A    between atoms: _102  and  _103
REMARK   44  A    between atoms: _102  and  _105
REMARK   45  A    between atoms: _105  and  _106
REMARK   46  A    between atoms: _106  and  _107
REMARK   47  A    between atoms: _107  and  _108
REMARK   48  A    between atoms: _108  and  _109
REMARK   49  A    between atoms: _113  and  _115
REMARK   50  A    between atoms: _115  and  _116
REMARK   51  A    between atoms: _115  and  _118
REMARK   52  A    between atoms: _118  and  _119
REMARK   53  A    between atoms: _119  and  _120
REMARK   54  A    between atoms: _122  and  _124
REMARK   55  A    between atoms: _124  and  _125
REMARK   56  A    between atoms: _124  and  _127
REMARK   57  A    between atoms: _127  and  _128
REMARK   58  A    between atoms: _131  and  _133
REMARK   59  A    between atoms: _133  and  _134
REMARK   60  A    between atoms: _136  and  _138
REMARK   61  A    between atoms: _138  and  _139
REMARK   62  A    between atoms: _141  and  _143
REMARK   63  A    between atoms: _143  and  _144
REMARK   64  A    between atoms: _143  and  _146
REMARK   65  A    between atoms: _149  and  _151
REMARK   66  A    between atoms: _151  and  _152
REMARK   67  A    between atoms: _154  and  _156
REMARK   68  A    between atoms: _156  and  _157
REMARK   69  A    between atoms: _159  and  _161
REMARK   70  A    between atoms: _161  and  _162
REMARK   71  A    between atoms: _161  and  _164
REMARK   72  A    between atoms: _164  and  _165
REMARK   73  A    between atoms: _171  and  _173
REMARK   74  A    between atoms: _173  and  _174
REMARK   75  A    between atoms: _173  and  _176
REMARK   76  A    between atoms: _176  and  _177
REMARK   77  A    between atoms: _180  and  _182
REMARK   78  A    between atoms: _182  and  _183
REMARK   79  A    between atoms: _182  and  _185
REMARK   80  A    between atoms: _185  and  _186
REMARK   81  A    between atoms: _189  and  _191
REMARK   82  A    between atoms: _191  and  _192
REMARK   83  A    between atoms: _191  and  _194
REMARK   84  A    between atoms: _194  and  _195
REMARK   85  A    between atoms: _199  and  _200
REMARK   86  A    between atoms: _205  and  _207
REMARK   87  A    between atoms: _207  and  _208
REMARK   88  A    between atoms: _207  and  _210
REMARK   89  A    between atoms: _213  and  _215
REMARK   90  A    between atoms: _215  and  _216
REMARK   91  A    between atoms: _215  and  _218
REMARK   92  A    between atoms: _218  and  _219
REMARK   93  A    between atoms: _224  and  _226
REMARK   94  A    between atoms: _226  and  _227
REMARK   95  A    between atoms: _226  and  _229
REMARK   96  A    between atoms: _229  and  _230
REMARK   97  A    between atoms: _233  and  _235
REMARK   98  A    between atoms: _235  and  _236
REMARK   99  A    between atoms: _235  and  _238
REMARK  100  A    between atoms: _238  and  _239
REMARK  101  A    between atoms: _242  and  _244
REMARK  102  A    between atoms: _244  and  _245
REMARK  103  A    between atoms: _247  and  _249
REMARK  104  A    between atoms: _249  and  _250
REMARK  105  A    between atoms: _249  and  _252
REMARK  106  A    between atoms: _252  and  _253
REMARK  107  A    between atoms: _253  and  _254
REMARK  108  A    between atoms: _254  and  _255
REMARK  109  A    between atoms: _264  and  _266
REMARK  110  A    between atoms: _266  and  _267
REMARK  111  A    between atoms: _266  and  _269
REMARK  112  A    between atoms: _269  and  _270
REMARK  113  A    between atoms: _275  and  _277
REMARK  114  A    between atoms: _277  and  _278
REMARK  115  A    between atoms: _277  and  _280
REMARK  116  A    between atoms: _280  and  _281
REMARK  117  A    between atoms: _281  and  _282
REMARK  118  A    between atoms: _282  and  _283
REMARK  119  A    between atoms: _292  and  _294
REMARK  120  A    between atoms: _294  and  _295
REMARK  121  A    between atoms: _294  and  _297
REMARK  122  A    between atoms: _297  and  _298
REMARK  123  A    between atoms: _301  and  _303
REMARK  124  A    between atoms: _303  and  _304
REMARK  125  A    between atoms: _303  and  _306
REMARK  126  A    between atoms: _306  and  _307
REMARK  127  A    between atoms: _310  and  _312
REMARK  128  A    between atoms: _312  and  _313
REMARK  129  A    between atoms: _312  and  _315
REMARK  130  A    between atoms: _315  and  _316
REMARK  131  A    between atoms: _319  and  _321
REMARK  132  A    between atoms: _321  and  _322
REMARK  133  A    between atoms: _321  and  _324
REMARK  134  A    between atoms: _324  and  _325
REMARK  135  A    between atoms: _328  and  _330
REMARK  136  A    between atoms: _330  and  _331
REMARK  137  A    between atoms: _333  and  _335
REMARK  138  A    between atoms: _335  and  _336
REMARK  139  A    between atoms: _339  and  _341
REMARK  140  A    between atoms: _341  and  _342
REMARK  141  A    between atoms: _341  and  _344
REMARK  142  A    between atoms: _344  and  _345
REMARK  143  A    between atoms: _348  and  _350
REMARK  144  A    between atoms: _350  and  _351
REMARK  145  A    between atoms: _350  and  _353
REMARK  146  A    between atoms: _353  and  _354
REMARK  147  A    between atoms: _357  and  _359
REMARK  148  A    between atoms: _359  and  _360
REMARK  149  A    between atoms: _359  and  _362
REMARK  150  A    between atoms: _362  and  _363
REMARK  151  A    between atoms: _366  and  _368
REMARK  152  A    between atoms: _368  and  _369
REMARK  153  A    between atoms: _368  and  _371
REMARK  154  A    between atoms: _374  and  _376
REMARK  155  A    between atoms: _376  and  _377
REMARK  156  A    between atoms: _376  and  _379
REMARK  157  A    between atoms: _379  and  _380
REMARK  158  A    between atoms: _380  and  _381
REMARK  159  A    between atoms: _381  and  _382
REMARK  160  A    between atoms: _382  and  _383
REMARK  161  A    between atoms: _387  and  _389
REMARK  162  A    between atoms: _389  and  _390
REMARK  163  A    between atoms: _389  and  _392
REMARK  164  A    between atoms: _392  and  _393
REMARK  165  A    between atoms: _393  and  _394
REMARK  166  A    between atoms: _396  and  _398
REMARK  167  A    between atoms: _398  and  _399
REMARK  168  A    between atoms: _398  and  _401
REMARK  169  A    between atoms: _401  and  _402
REMARK  170  A    between atoms: _405  and  _407
REMARK  171  A    between atoms: _407  and  _408
REMARK  172  A    between atoms: _410  and  _412
REMARK  173  A    between atoms: _412  and  _413
REMARK  174  A    between atoms: _415  and  _417
REMARK  175  A    between atoms: _417  and  _418
REMARK  176  A    between atoms: _417  and  _420
REMARK  177  A    between atoms: _423  and  _425
REMARK  178  A    between atoms: _425  and  _426
REMARK  179  A    between atoms: _428  and  _430
REMARK  180  A    between atoms: _430  and  _431
REMARK  181  A    between atoms: _433  and  _435
REMARK  182  A    between atoms: _435  and  _436
REMARK  183  A    between atoms: _435  and  _438
REMARK  184  A    between atoms: _438  and  _439
REMARK  185  A    between atoms: _445  and  _447
REMARK  186  A    between atoms: _447  and  _448
REMARK  187  A    between atoms: _447  and  _450
REMARK  188  A    between atoms: _450  and  _451
REMARK  189  A    between atoms: _454  and  _456
REMARK  190  A    between atoms: _456  and  _457
REMARK  191  A    between atoms: _456  and  _459
REMARK  192  A    between atoms: _459  and  _460
REMARK  193  A    between atoms: _463  and  _465
REMARK  194  A    between atoms: _465  and  _466
REMARK  195  A    between atoms: _465  and  _468
REMARK  196  A    between atoms: _468  and  _469
REMARK  197  A    between atoms: _473  and  _474
REMARK  198  A    between atoms: _479  and  _481
REMARK  199  A    between atoms: _481  and  _482
REMARK  200  A    between atoms: _481  and  _484
REMARK  201  A    between atoms: _487  and  _489
REMARK  202  A    between atoms: _489  and  _490
REMARK  203  A    between atoms: _489  and  _492
REMARK  204  A    between atoms: _492  and  _493
REMARK  205  A    between atoms: _498  and  _500
REMARK  206  A    between atoms: _500  and  _501
REMARK  207  A    between atoms: _500  and  _503
REMARK  208  A    between atoms: _503  and  _504
REMARK  209  A    between atoms: _507  and  _509
REMARK  210  A    between atoms: _509  and  _510
REMARK  211  A    between atoms: _509  and  _512
REMARK  212  A    between atoms: _512  and  _513
REMARK  213  A    between atoms: _516  and  _518
REMARK  214  A    between atoms: _518  and  _519
REMARK  215  A    between atoms: _521  and  _523
REMARK  216  A    between atoms: _523  and  _524
REMARK  217  A    between atoms: _523  and  _526
REMARK  218  A    between atoms: _526  and  _527
REMARK  219  A    between atoms: _527  and  _528
REMARK  220  A    between atoms: _528  and  _529
REMARK  221  A    between atoms: _538  and  _540
REMARK  222  A    between atoms: _540  and  _541
REMARK  223  A    between atoms: _540  and  _543
REMARK  224  A    between atoms: _543  and  _544
REMARK                            x       y       z     vdW  Elec       q    Type
REMARK                         _______ _______ _______ _____ _____    ______ ____
ROOT
ATOM      1  NE  ARG A   1       5.544  20.525  15.308  0.00  0.00    -0.265 N 
ATOM      2  HE  ARG A   1       5.768  20.442  16.320  0.00  0.00    +0.259 HD
ATOM      3  CZ  ARG A   1       5.779  19.484  14.517  0.00  0.00    +0.342 C 
ATOM      4  NH2 ARG A   1       6.284  18.389  15.031  0.00  0.00    -0.292 N 
ATOM      5 HH21 ARG A   1       6.496  18.342  16.048  0.00  0.00    +0.255 HD
ATOM      6 HH22 ARG A   1       6.472  17.567  14.422  0.00  0.00    +0.255 HD
ATOM      7  NH1 ARG A   1       5.508  19.518  13.222  0.00  0.00    -0.292 N 
ATOM      8 HH11 ARG A   1       5.100  20.376  12.798  0.00  0.00    +0.255 HD
ATOM      9 HH12 ARG A   1       5.703  18.687  12.628  0.00  0.00    +0.255 HD
ENDROOT
BRANCH   1  10
ATOM     10  CD  ARG A   1       4.985  21.780  14.817  0.00  0.00    +0.174 C 
BRANCH  10  11
ATOM     11  CG  ARG A   1       4.895  22.741  15.988  0.00  0.00    +0.045 C 
BRANCH  11  12
ATOM     12  CB  ARG A   1       4.394  24.112  15.546  0.00  0.00    +0.029 C 
BRANCH  12  13
ATOM     13  CA  ARG A   1       3.762  24.852  16.725  0.00  0.00    +0.133 C 
BRANCH  13  14
ATOM     14  N   ARG A   1       2.547  24.184  17.219  0.00  0.00    -0.239 NA
ATOM     15  H   ARG A   1       2.228  23.293  16.787  0.00  0.00    +0.142 HD
ENDBRANCH  13  14
BRANCH  13  16
ATOM     16  C   ARG A   1       3.450  26.272  16.287  0.00  0.00    +0.224 C 
ATOM     17  O   ARG A   1       2.456  26.473  15.581  0.00  0.00    -0.287 OA
ENDBRANCH  13  16
ENDBRANCH  12  13
ENDBRANCH  11  12
ENDBRANCH  10  11
ENDBRANCH   1  10
TORSDOF 6
REMARK  Name = ../refined-set-2016/2qd6/2qd6_pocket.pdb
REMARK  224 active torsions:
REMARK  status: ('A' for Active; 'I' for Inactive)
REMARK    1  A    between atoms: _1  and  _3
REMARK    2  A    between atoms: _3  and  _4
REMARK    3  A    between atoms: _3  and  _6
REMARK    4  A    between atoms: _6  and  _7
REMARK    5  A    between atoms: _7  and  _8
REMARK    6  A    between atoms: _8  and  _9
REMARK    7  A    between atoms: _18  and  _20
REMARK    8  A    between atoms: _20  and  _21
REMARK    9  A    between atoms: _20  and  _23
REMARK   10  A    between atoms: _23  and  _24
REMARK   11  A    between atoms: _27  and  _29
REMARK   12  A    between atoms: _29  and  _30
REMARK   13  A    between atoms: _29  and  _32
REMARK   14  A    between atoms: _32  and  _33
REMARK   15  A    between atoms: _36  and  _38
REMARK   16  A    between atoms: _38  and  _39
REMARK   17  A    between atoms: _38  and  _41
REMARK   18  A    between atoms: _41  and  _42
REMARK   19  A    between atoms: _45  and  _47
REMARK   20  A    between atoms: _47  and  _48
REMARK   21  A    between atoms: _47  and  _50
REMARK   22  A    between atoms: _50  and  _51
REMARK   23  A    between atoms: _54  and  _56
REMARK   24  A    between atoms: _56  and  _57
REMARK   25  A    between atoms: _59  and  _61
REMARK   26  A    between atoms: _61  and  _62
REMARK   27  A    between atoms: _65  and  _67
REMARK   28  A    between atoms: _67  and  _68
REMARK   29  A    between atoms: _67  and  _70
REMARK   30  A    between atoms: _70  and  _71
REMARK   31  A    between atoms: _74  and  _76
REMARK   32  A    between atoms: _76  and  _77
REMARK   33  A    between atoms: _76  and  _79
REMARK   34  A    between atoms: _79  and  _80
REMARK   35  A    between atoms: _83  and  _85
REMARK   36  A    between atoms: _85  and  _86
REMARK   37  A    between atoms: _85  and  _88
REMARK   38  A    between atoms: _88  and  _89
REMARK   39  A    between atoms: _92  and  _94
REMARK   40  A    between atoms: _94  and  _95
REMARK   41  A    between atoms: _94  and  _97
REMARK   42  A    between atoms: _100  and  _102
REMARK   43  A    between atoms: _102  and  _103
REMARK   44  A    between atoms: _102  and  _105
REMARK   45  A    between atoms: _105  and  _106
REMARK   46  A    between atoms: _106  and  _107
REMARK   47  A    between atoms: _107  and  _108
REMARK   48  A    between atoms: _108  and  _109
REMARK   49  A    between atoms: _113  and  _115
REMARK   50  A    between atoms: _115  and  _116
REMARK   51  A    between atoms: _115  and  _118
REMARK   52  A    between atoms: _118  and  _119
REMARK   53  A    between atoms: _119  and  _120
REMARK   54  A    between atoms: _122  and  _124
REMARK   55  A    between atoms: _124  and  _125
REMARK   56  A    between atoms: _124  and  _127
REMARK   57  A    between atoms: _127  and  _128
REMARK   58  A    between atoms: _131  and  _133
REMARK   59  A    between atoms: _133  and  _134
REMARK   60  A    between atoms: _136  and  _138
REMARK   61  A    between atoms: _138  and  _139
REMARK   62  A    between atoms: _141  and  _143
REMARK   63  A    between atoms: _143  and  _144
REMARK   64  A    between atoms: _143  and  _146
REMARK   65  A    between atoms: _149  and  _151
REMARK   66  A    between atoms: _151  and  _152
REMARK   67  A    between atoms: _154  and  _156
REMARK   68  A    between atoms: _156  and  _157
REMARK   69  A    between atoms: _159  and  _161
REMARK   70  A    between atoms: _161  and  _162
REMARK   71  A    between atoms: _161  and  _164
REMARK   72  A    between atoms: _164  and  _165
REMARK   73  A    between atoms: _171  and  _173
REMARK   74  A    between atoms: _173  and  _174
REMARK   75  A    between atoms: _173  and  _176
REMARK   76  A    between atoms: _176  and  _177
REMARK   77  A    between atoms: _180  and  _182
REMARK   78  A    between atoms: _182  and  _183
REMARK   79  A    between atoms: _182  and  _185
REMARK   80  A    between atoms: _185  and  _186
REMARK   81  A    between atoms: _189  and  _191
REMARK   82  A    between atoms: _191  and  _192
REMARK   83  A    between atoms: _191  and  _194
REMARK   84  A    between atoms: _194  and  _195
REMARK   85  A    between atoms: _199  and  _200
REMARK   86  A    between atoms: _205  and  _207
REMARK   87  A    between atoms: _207  and  _208
REMARK   88  A    between atoms: _207  and  _210
REMARK   89  A    between atoms: _213  and  _215
REMARK   90  A    between atoms: _215  and  _216
REMARK   91  A    between atoms: _215  and  _218
REMARK   92  A    between atoms: _218  and  _219
REMARK   93  A    between atoms: _224  and  _226
REMARK   94  A    between atoms: _226  and  _227
REMARK   95  A    between atoms: _226  and  _229
REMARK   96  A    between atoms: _229  and  _230
REMARK   97  A    between atoms: _233  and  _235
REMARK   98  A    between atoms: _235  and  _236
REMARK   99  A    between atoms: _235  and  _238
REMARK  100  A    between atoms: _238  and  _239
REMARK  101  A    between atoms: _242  and  _244
REMARK  102  A    between atoms: _244  and  _245
REMARK  103  A    between atoms: _247  and  _249
REMARK  104  A    between atoms: _249  and  _250
REMARK  105  A    between atoms: _249  and  _252
REMARK  106  A    between atoms: _252  and  _253
REMARK  107  A    between atoms: _253  and  _254
REMARK  108  A    between atoms: _254  and  _255
REMARK  109  A    between atoms: _264  and  _266
REMARK  110  A    between atoms: _266  and  _267
REMARK  111  A    between atoms: _266  and  _269
REMARK  112  A    between atoms: _269  and  _270
REMARK  113  A    between atoms: _275  and  _277
REMARK  114  A    between atoms: _277  and  _278
REMARK  115  A    between atoms: _277  and  _280
REMARK  116  A    between atoms: _280  and  _281
REMARK  117  A    between atoms: _281  and  _282
REMARK  118  A    between atoms: _282  and  _283
REMARK  119  A    between atoms: _292  and  _294
REMARK  120  A    between atoms: _294  and  _295
REMARK  121  A    between atoms: _294  and  _297
REMARK  122  A    between atoms: _297  and  _298
REMARK  123  A    between atoms: _301  and  _303
REMARK  124  A    between atoms: _303  and  _304
REMARK  125  A    between atoms: _303  and  _306
REMARK  126  A    between atoms: _306  and  _307
REMARK  127  A    between atoms: _310  and  _312
REMARK  128  A    between atoms: _312  and  _313
REMARK  129  A    between atoms: _312  and  _315
REMARK  130  A    between atoms: _315  and  _316
REMARK  131  A    between atoms: _319  and  _321
REMARK  132  A    between atoms: _321  and  _322
REMARK  133  A    between atoms: _321  and  _324
REMARK  134  A    between atoms: _324  and  _325
REMARK  135  A    between atoms: _328  and  _330
REMARK  136  A    between atoms: _330  and  _331
REMARK  137  A    between atoms: _333  and  _335
REMARK  138  A    between atoms: _335  and  _336
REMARK  139  A    between atoms: _339  and  _341
REMARK  140  A    between atoms: _341  and  _342
REMARK  141  A    between atoms: _341  and  _344
REMARK  142  A    between atoms: _344  and  _345
REMARK  143  A    between atoms: _348  and  _350
REMARK  144  A    between atoms: _350  and  _351
REMARK  145  A    between atoms: _350  and  _353
REMARK  146  A    between atoms: _353  and  _354
REMARK  147  A    between atoms: _357  and  _359
REMARK  148  A    between atoms: _359  and  _360
REMARK  149  A    between atoms: _359  and  _362
REMARK  150  A    between atoms: _362  and  _363
REMARK  151  A    between atoms: _366  and  _368
REMARK  152  A    between atoms: _368  and  _369
REMARK  153  A    between atoms: _368  and  _371
REMARK  154  A    between atoms: _374  and  _376
REMARK  155  A    between atoms: _376  and  _377
REMARK  156  A    between atoms: _376  and  _379
REMARK  157  A    between atoms: _379  and  _380
REMARK  158  A    between atoms: _380  and  _381
REMARK  159  A    between atoms: _381  and  _382
REMARK  160  A    between atoms: _382  and  _383
REMARK  161  A    between atoms: _387  and  _389
REMARK  162  A    between atoms: _389  and  _390
REMARK  163  A    between atoms: _389  and  _392
REMARK  164  A    between atoms: _392  and  _393
REMARK  165  A    between atoms: _393  and  _394
REMARK  166  A    between atoms: _396  and  _398
REMARK  167  A    between atoms: _398  and  _399
REMARK  168  A    between atoms: _398  and  _401
REMARK  169  A    between atoms: _401  and  _402
REMARK  170  A    between atoms: _405  and  _407
REMARK  171  A    between atoms: _407  and  _408
REMARK  172  A    between atoms: _410  and  _412
REMARK  173  A    between atoms: _412  and  _413
REMARK  174  A    between atoms: _415  and  _417
REMARK  175  A    between atoms: _417  and  _418
REMARK  176  A    between atoms: _417  and  _420
REMARK  177  A    between atoms: _423  and  _425
REMARK  178  A    between atoms: _425  and  _426
REMARK  179  A    between atoms: _428  and  _430
REMARK  180  A    between atoms: _430  and  _431
REMARK  181  A    between atoms: _433  and  _435
REMARK  182  A    between atoms: _435  and  _436
REMARK  183  A    between atoms: _435  and  _438
REMARK  184  A    between atoms: _438  and  _439
REMARK  185  A    between atoms: _445  and  _447
REMARK  186  A    between atoms: _447  and  _448
REMARK  187  A    between atoms: _447  and  _450
REMARK  188  A    between atoms: _450  and  _451
REMARK  189  A    between atoms: _454  and  _456
REMARK  190  A    between atoms: _456  and  _457
REMARK  191  A    between atoms: _456  and  _459
REMARK  192  A    between atoms: _459  and  _460
REMARK  193  A    between atoms: _463  and  _465
REMARK  194  A    between atoms: _465  and  _466
REMARK  195  A    between atoms: _465  and  _468
REMARK  196  A    between atoms: _468  and  _469
REMARK  197  A    between atoms: _473  and  _474
REMARK  198  A    between atoms: _479  and  _481
REMARK  199  A    between atoms: _481  and  _482
REMARK  200  A    between atoms: _481  and  _484
REMARK  201  A    between atoms: _487  and  _489
REMARK  202  A    between atoms: _489  and  _490
REMARK  203  A    between atoms: _489  and  _492
REMARK  204  A    between atoms: _492  and  _493
REMARK  205  A    between atoms: _498  and  _500
REMARK  206  A    between atoms: _500  and  _501
REMARK  207  A    between atoms: _500  and  _503
REMARK  208  A    between atoms: _503  and  _504
REMARK  209  A    between atoms: _507  and  _509
REMARK  210  A    between atoms: _509  and  _510
REMARK  211  A    between atoms: _509  and  _512
REMARK  212  A    between atoms: _512  and  _513
REMARK  213  A    between atoms: _516  and  _518
REMARK  214  A    between atoms: _518  and  _519
REMARK  215  A    between atoms: _521  and  _523
REMARK  216  A    between atoms: _523  and  _524
REMARK  217  A    between atoms: _523  and  _526
REMARK  218  A    between atoms: _526  and  _527
REMARK  219  A    between atoms: _527  and  _528
REMARK  220  A    between atoms: _528  and  _529
REMARK  221  A    between atoms: _538  and  _540
REMARK  222  A    between atoms: _540  and  _541
REMARK  223  A    between atoms: _540  and  _543
REMARK  224  A    between atoms: _543  and  _544
REMARK                            x       y       z     vdW  Elec       q    Type
REMARK                         _______ _______ _______ _____ _____    ______ ____
ROOT
ATOM      1  C   GLY A   5      16.812  28.373  19.770  0.00  0.00    +0.243 C 
ATOM      2  O   GLY A   5      17.863  27.750  19.914  0.00  0.00    -0.273 OA
ATOM      3  N   ALA A   6      16.528  29.083  18.678  0.00  0.00    -0.297 N 
ATOM      4  H   ALA A   6      15.619  29.586  18.638  0.00  0.00    +0.150 HD
ENDROOT
BRANCH   3   5
ATOM      5  CA  ALA A   6      17.425  29.189  17.541  0.00  0.00    +0.149 C 
ATOM      6  CB  ALA A   6      16.651  29.104  16.239  0.00  0.00    +0.031 C 
BRANCH   5   7
ATOM      7  C   ALA A   6      18.146  30.540  17.612  0.00  0.00    +0.241 C 
ATOM      8  N   ASP A   7      19.463  30.554  17.642  0.00  0.00    -0.297 N 
ATOM      9  H   ASP A   7      19.991  29.661  17.719  0.00  0.00    +0.150 HD
ATOM     10  O   ALA A   6      17.484  31.577  17.613  0.00  0.00    -0.273 OA
BRANCH   8  11
ATOM     11  CA  ASP A   7      20.181  31.824  17.567  0.00  0.00    +0.160 C 
BRANCH  11  12
ATOM     12  C   ASP A   7      19.996  32.491  16.208  0.00  0.00    +0.241 C 
ATOM     13  O   ASP A   7      19.951  33.720  16.104  0.00  0.00    -0.273 OA
ATOM     14  N   ASP A   8      19.941  31.662  15.173  0.00  0.00    -0.297 N 
ATOM     15  H   ASP A   8      19.850  30.646  15.374  0.00  0.00    +0.150 HD
BRANCH  14  16
ATOM     16  CA  ASP A   8      19.998  32.064  13.797  0.00  0.00    +0.160 C 
BRANCH  16  17
ATOM     17  C   ASP A   8      18.746  31.596  13.056  0.00  0.00    +0.241 C 
ATOM     18  O   ASP A   8      18.056  30.691  13.471  0.00  0.00    -0.273 OA
ATOM     19  N   THR A   9      18.508  32.251  11.934  0.00  0.00    -0.295 N 
ATOM     20  H   THR A   9      19.143  33.037  11.689  0.00  0.00    +0.150 HD
BRANCH  19  21
ATOM     21  CA  THR A   9      17.429  31.953  11.025  0.00  0.00    +0.176 C 
BRANCH  21  22
ATOM     22  C   THR A   9      17.942  31.014   9.935  0.00  0.00    +0.243 C 
ATOM     23  N   VAL A  10      17.231  29.899   9.736  0.00  0.00    -0.298 N 
ATOM     24  H   VAL A  10      16.322  29.787  10.229  0.00  0.00    +0.150 HD
ATOM     25  O   THR A   9      18.960  31.288   9.335  0.00  0.00    -0.273 OA
BRANCH  23  26
ATOM     26  CA  VAL A  10      17.690  28.832   8.847  0.00  0.00    +0.137 C 
BRANCH  26  27
ATOM     27  CB  VAL A  10      18.172  27.576   9.600  0.00  0.00    +0.026 C 
ATOM     28  CG2 VAL A  10      19.014  27.934  10.841  0.00  0.00    +0.002 C 
ATOM     29  CG1 VAL A  10      18.934  26.647   8.649  0.00  0.00    +0.002 C 
ENDBRANCH  26  27
BRANCH  26  30
ATOM     30  C   VAL A  10      16.512  28.447   7.946  0.00  0.00    +0.227 C 
ATOM     31  O   VAL A  10      15.461  28.060   8.448  0.00  0.00    -0.286 OA
ENDBRANCH  26  30
ENDBRANCH  23  26
ENDBRANCH  21  22
BRANCH  21  32
ATOM     32  CB  THR A   9      16.852  33.280  10.441  0.00  0.00    +0.137 C 
ATOM     33  CG2 THR A   9      15.801  33.048   9.372  0.00  0.00    +0.034 C 
BRANCH  32  34
ATOM     34  OG1 THR A   9      16.244  34.002  11.506  0.00  0.00    -0.382 OA
ATOM     35  HG1 THR A   9      16.923  34.200  12.199  0.00  0.00    +0.210 HD
ENDBRANCH  32  34
ENDBRANCH  21  32
ENDBRANCH  19  21
ENDBRANCH  16  17
BRANCH  16  36
ATOM     36  CB  ASP A   8      21.237  31.435  13.155  0.00  0.00    +0.143 C 
BRANCH  36  37
ATOM     37  CG  ASP A   8      22.557  31.912  13.717  0.00  0.00    +0.367 C 
ATOM     38  OD2 ASP A   8      22.599  33.015  14.315  0.00  0.00    -0.246 OA
ATOM     39  OD1 ASP A   8      23.549  31.170  13.537  0.00  0.00    -0.246 OA
ENDBRANCH  36  37
ENDBRANCH  16  36
ENDBRANCH  14  16
ENDBRANCH  11  12
BRANCH  11  40
ATOM     40  CB  ASP A   7      21.670  31.601  17.819  0.00  0.00    +0.143 C 
BRANCH  40  41
ATOM     41  CG  ASP A   7      22.122  30.990  19.114  0.00  0.00    +0.367 C 
ATOM     42  OD2 ASP A   7      21.410  31.086  20.130  0.00  0.00    -0.246 OA
ATOM     43  OD1 ASP A   7      23.237  30.405  19.099  0.00  0.00    -0.246 OA
ENDBRANCH  40  41
ENDBRANCH  11  40
ENDBRANCH   8  11
ENDBRANCH   5   7
ENDBRANCH   3   5
BRANCH   1  44
ATOM     44  CA  GLY A   5      15.794  28.289  20.891  0.00  0.00    +0.176 C 
BRANCH  44  47
ATOM     45  C   THR A   4      14.520  30.406  20.916  0.00  0.00    +0.243 C 
ATOM     46  O   THR A   4      15.440  31.031  21.446  0.00  0.00    -0.273 OA
ATOM     47  N   GLY A   5      14.609  29.125  20.647  0.00  0.00    -0.295 N 
ATOM     48  H   GLY A   5      13.776  28.664  20.228  0.00  0.00    +0.150 HD
BRANCH  45  49
ATOM     49  CA  THR A   4      13.258  31.172  20.564  0.00  0.00    +0.176 C 
BRANCH  49  51
ATOM     50  C   ASP A   3      12.858  30.323  18.313  0.00  0.00    +0.241 C 
ATOM     51  N   THR A   4      12.453  30.476  19.577  0.00  0.00    -0.295 N 
ATOM     52  H   THR A   4      11.533  30.084  19.862  0.00  0.00    +0.150 HD
ATOM     53  O   ASP A   3      13.962  30.715  17.971  0.00  0.00    -0.273 OA
BRANCH  50  54
ATOM     54  CA  ASP A   3      11.890  29.592  17.385  0.00  0.00    +0.160 C 
BRANCH  54  57
ATOM     55  C   LEU A   2       9.776  30.420  16.557  0.00  0.00    +0.241 C 
ATOM     56  O   LEU A   2       9.136  29.761  17.390  0.00  0.00    -0.273 OA
ATOM     57  N   ASP A   3      11.089  30.501  16.549  0.00  0.00    -0.297 N 
ATOM     58  H   ASP A   3      11.562  31.208  15.951  0.00  0.00    +0.150 HD
BRANCH  55  59
ATOM     59  CA  LEU A   2       9.057  31.112  15.404  0.00  0.00    +0.149 C 
BRANCH  59  61
ATOM     60  C   LEU A   1       9.258  29.427  13.641  0.00  0.00    +0.238 C 
ATOM     61  N   LEU A   2       8.501  30.104  14.514  0.00  0.00    -0.297 N 
ATOM     62  H   LEU A   2       7.482  29.903  14.557  0.00  0.00    +0.150 HD
ATOM     63  O   LEU A   1      10.431  29.711  13.447  0.00  0.00    -0.274 OA
BRANCH  60  64
ATOM     64  CA  LEU A   1       8.609  28.260  12.907  0.00  0.00    +0.145 C 
BRANCH  64  65
ATOM     65  N   LEU A   1       8.719  28.464  11.475  0.00  0.00    -0.238 NA
ATOM     66  H   LEU A   1       9.593  28.116  11.032  0.00  0.00    +0.142 HD
ENDBRANCH  64  65
BRANCH  64  67
ATOM     67  CB  LEU A   1       9.138  26.866  13.227  0.00  0.00    +0.026 C 
BRANCH  67  68
ATOM     68  CG  LEU A   1       9.104  26.384  14.679  0.00  0.00    +0.002 C 
ATOM     69  CD2 LEU A   1       7.719  26.021  15.125  0.00  0.00    +0.000 C 
ATOM     70  CD1 LEU A   1      10.042  25.186  14.802  0.00  0.00    +0.000 C 
ENDBRANCH  67  68
ENDBRANCH  64  67
ENDBRANCH  60  64
ENDBRANCH  59  61
BRANCH  59  71
ATOM     71  CB  LEU A   2       7.965  32.031  15.951  0.00  0.00    +0.029 C 
BRANCH  71  72
ATOM     72  CG  LEU A   2       7.137  32.791  14.912  0.00  0.00    +0.002 C 
ATOM     73  CD2 LEU A   2       6.116  33.676  15.608  0.00  0.00    +0.000 C 
ATOM     74  CD1 LEU A   2       8.065  33.580  14.003  0.00  0.00    +0.000 C 
ENDBRANCH  71  72
ENDBRANCH  59  71
ENDBRANCH  55  59
ENDBRANCH  54  57
BRANCH  54  75
ATOM     75  CB  ASP A   3      12.671  28.663  16.472  0.00  0.00    +0.143 C 
BRANCH  75  76
ATOM     76  CG  ASP A   3      13.365  27.570  17.214  0.00  0.00    +0.367 C 
ATOM     77  OD2 ASP A   3      13.316  27.570  18.466  0.00  0.00    -0.246 OA
ATOM     78  OD1 ASP A   3      13.941  26.704  16.531  0.00  0.00    -0.246 OA
ENDBRANCH  75  76
ENDBRANCH  54  75
ENDBRANCH  50  54
ENDBRANCH  49  51
BRANCH  49  79
ATOM     79  CB  THR A   4      12.470  31.478  21.852  0.00  0.00    +0.137 C 
ATOM     80  CG2 THR A   4      11.273  32.383  21.549  0.00  0.00    +0.034 C 
BRANCH  79  81
ATOM     81  OG1 THR A   4      11.977  30.253  22.403  0.00  0.00    -0.382 OA
ATOM     82  HG1 THR A   4      12.739  29.656  22.612  0.00  0.00    +0.210 HD
ENDBRANCH  79  81
ENDBRANCH  49  79
ENDBRANCH  45  49
ENDBRANCH  44  47
ENDBRANCH   1  44
TORSDOF 35
REMARK  Name = ../refined-set-2016/2qd6/2qd6_pocket.pdb
REMARK  224 active torsions:
REMARK  status: ('A' for Active; 'I' for Inactive)
REMARK    1  A    between atoms: _1  and  _3
REMARK    2  A    between atoms: _3  and  _4
REMARK    3  A    between atoms: _3  and  _6
REMARK    4  A    between atoms: _6  and  _7
REMARK    5  A    between atoms: _7  and  _8
REMARK    6  A    between atoms: _8  and  _9
REMARK    7  A    between atoms: _18  and  _20
REMARK    8  A    between atoms: _20  and  _21
REMARK    9  A    between atoms: _20  and  _23
REMARK   10  A    between atoms: _23  and  _24
REMARK   11  A    between atoms: _27  and  _29
REMARK   12  A    between atoms: _29  and  _30
REMARK   13  A    between atoms: _29  and  _32
REMARK   14  A    between atoms: _32  and  _33
REMARK   15  A    between atoms: _36  and  _38
REMARK   16  A    between atoms: _38  and  _39
REMARK   17  A    between atoms: _38  and  _41
REMARK   18  A    between atoms: _41  and  _42
REMARK   19  A    between atoms: _45  and  _47
REMARK   20  A    between atoms: _47  and  _48
REMARK   21  A    between atoms: _47  and  _50
REMARK   22  A    between atoms: _50  and  _51
REMARK   23  A    between atoms: _54  and  _56
REMARK   24  A    between atoms: _56  and  _57
REMARK   25  A    between atoms: _59  and  _61
REMARK   26  A    between atoms: _61  and  _62
REMARK   27  A    between atoms: _65  and  _67
REMARK   28  A    between atoms: _67  and  _68
REMARK   29  A    between atoms: _67  and  _70
REMARK   30  A    between atoms: _70  and  _71
REMARK   31  A    between atoms: _74  and  _76
REMARK   32  A    between atoms: _76  and  _77
REMARK   33  A    between atoms: _76  and  _79
REMARK   34  A    between atoms: _79  and  _80
REMARK   35  A    between atoms: _83  and  _85
REMARK   36  A    between atoms: _85  and  _86
REMARK   37  A    between atoms: _85  and  _88
REMARK   38  A    between atoms: _88  and  _89
REMARK   39  A    between atoms: _92  and  _94
REMARK   40  A    between atoms: _94  and  _95
REMARK   41  A    between atoms: _94  and  _97
REMARK   42  A    between atoms: _100  and  _102
REMARK   43  A    between atoms: _102  and  _103
REMARK   44  A    between atoms: _102  and  _105
REMARK   45  A    between atoms: _105  and  _106
REMARK   46  A    between atoms: _106  and  _107
REMARK   47  A    between atoms: _107  and  _108
REMARK   48  A    between atoms: _108  and  _109
REMARK   49  A    between atoms: _113  and  _115
REMARK   50  A    between atoms: _115  and  _116
REMARK   51  A    between atoms: _115  and  _118
REMARK   52  A    between atoms: _118  and  _119
REMARK   53  A    between atoms: _119  and  _120
REMARK   54  A    between atoms: _122  and  _124
REMARK   55  A    between atoms: _124  and  _125
REMARK   56  A    between atoms: _124  and  _127
REMARK   57  A    between atoms: _127  and  _128
REMARK   58  A    between atoms: _131  and  _133
REMARK   59  A    between atoms: _133  and  _134
REMARK   60  A    between atoms: _136  and  _138
REMARK   61  A    between atoms: _138  and  _139
REMARK   62  A    between atoms: _141  and  _143
REMARK   63  A    between atoms: _143  and  _144
REMARK   64  A    between atoms: _143  and  _146
REMARK   65  A    between atoms: _149  and  _151
REMARK   66  A    between atoms: _151  and  _152
REMARK   67  A    between atoms: _154  and  _156
REMARK   68  A    between atoms: _156  and  _157
REMARK   69  A    between atoms: _159  and  _161
REMARK   70  A    between atoms: _161  and  _162
REMARK   71  A    between atoms: _161  and  _164
REMARK   72  A    between atoms: _164  and  _165
REMARK   73  A    between atoms: _171  and  _173
REMARK   74  A    between atoms: _173  and  _174
REMARK   75  A    between atoms: _173  and  _176
REMARK   76  A    between atoms: _176  and  _177
REMARK   77  A    between atoms: _180  and  _182
REMARK   78  A    between atoms: _182  and  _183
REMARK   79  A    between atoms: _182  and  _185
REMARK   80  A    between atoms: _185  and  _186
REMARK   81  A    between atoms: _189  and  _191
REMARK   82  A    between atoms: _191  and  _192
REMARK   83  A    between atoms: _191  and  _194
REMARK   84  A    between atoms: _194  and  _195
REMARK   85  A    between atoms: _199  and  _200
REMARK   86  A    between atoms: _205  and  _207
REMARK   87  A    between atoms: _207  and  _208
REMARK   88  A    between atoms: _207  and  _210
REMARK   89  A    between atoms: _213  and  _215
REMARK   90  A    between atoms: _215  and  _216
REMARK   91  A    between atoms: _215  and  _218
REMARK   92  A    between atoms: _218  and  _219
REMARK   93  A    between atoms: _224  and  _226
REMARK   94  A    between atoms: _226  and  _227
REMARK   95  A    between atoms: _226  and  _229
REMARK   96  A    between atoms: _229  and  _230
REMARK   97  A    between atoms: _233  and  _235
REMARK   98  A    between atoms: _235  and  _236
REMARK   99  A    between atoms: _235  and  _238
REMARK  100  A    between atoms: _238  and  _239
REMARK  101  A    between atoms: _242  and  _244
REMARK  102  A    between atoms: _244  and  _245
REMARK  103  A    between atoms: _247  and  _249
REMARK  104  A    between atoms: _249  and  _250
REMARK  105  A    between atoms: _249  and  _252
REMARK  106  A    between atoms: _252  and  _253
REMARK  107  A    between atoms: _253  and  _254
REMARK  108  A    between atoms: _254  and  _255
REMARK  109  A    between atoms: _264  and  _266
REMARK  110  A    between atoms: _266  and  _267
REMARK  111  A    between atoms: _266  and  _269
REMARK  112  A    between atoms: _269  and  _270
REMARK  113  A    between atoms: _275  and  _277
REMARK  114  A    between atoms: _277  and  _278
REMARK  115  A    between atoms: _277  and  _280
REMARK  116  A    between atoms: _280  and  _281
REMARK  117  A    between atoms: _281  and  _282
REMARK  118  A    between atoms: _282  and  _283
REMARK  119  A    between atoms: _292  and  _294
REMARK  120  A    between atoms: _294  and  _295
REMARK  121  A    between atoms: _294  and  _297
REMARK  122  A    between atoms: _297  and  _298
REMARK  123  A    between atoms: _301  and  _303
REMARK  124  A    between atoms: _303  and  _304
REMARK  125  A    between atoms: _303  and  _306
REMARK  126  A    between atoms: _306  and  _307
REMARK  127  A    between atoms: _310  and  _312
REMARK  128  A    between atoms: _312  and  _313
REMARK  129  A    between atoms: _312  and  _315
REMARK  130  A    between atoms: _315  and  _316
REMARK  131  A    between atoms: _319  and  _321
REMARK  132  A    between atoms: _321  and  _322
REMARK  133  A    between atoms: _321  and  _324
REMARK  134  A    between atoms: _324  and  _325
REMARK  135  A    between atoms: _328  and  _330
REMARK  136  A    between atoms: _330  and  _331
REMARK  137  A    between atoms: _333  and  _335
REMARK  138  A    between atoms: _335  and  _336
REMARK  139  A    between atoms: _339  and  _341
REMARK  140  A    between atoms: _341  and  _342
REMARK  141  A    between atoms: _341  and  _344
REMARK  142  A    between atoms: _344  and  _345
REMARK  143  A    between atoms: _348  and  _350
REMARK  144  A    between atoms: _350  and  _351
REMARK  145  A    between atoms: _350  and  _353
REMARK  146  A    between atoms: _353  and  _354
REMARK  147  A    between atoms: _357  and  _359
REMARK  148  A    between atoms: _359  and  _360
REMARK  149  A    between atoms: _359  and  _362
REMARK  150  A    between atoms: _362  and  _363
REMARK  151  A    between atoms: _366  and  _368
REMARK  152  A    between atoms: _368  and  _369
REMARK  153  A    between atoms: _368  and  _371
REMARK  154  A    between atoms: _374  and  _376
REMARK  155  A    between atoms: _376  and  _377
REMARK  156  A    between atoms: _376  and  _379
REMARK  157  A    between atoms: _379  and  _380
REMARK  158  A    between atoms: _380  and  _381
REMARK  159  A    between atoms: _381  and  _382
REMARK  160  A    between atoms: _382  and  _383
REMARK  161  A    between atoms: _387  and  _389
REMARK  162  A    between atoms: _389  and  _390
REMARK  163  A    between atoms: _389  and  _392
REMARK  164  A    between atoms: _392  and  _393
REMARK  165  A    between atoms: _393  and  _394
REMARK  166  A    between atoms: _396  and  _398
REMARK  167  A    between atoms: _398  and  _399
REMARK  168  A    between atoms: _398  and  _401
REMARK  169  A    between atoms: _401  and  _402
REMARK  170  A    between atoms: _405  and  _407
REMARK  171  A    between atoms: _407  and  _408
REMARK  172  A    between atoms: _410  and  _412
REMARK  173  A    between atoms: _412  and  _413
REMARK  174  A    between atoms: _415  and  _417
REMARK  175  A    between atoms: _417  and  _418
REMARK  176  A    between atoms: _417  and  _420
REMARK  177  A    between atoms: _423  and  _425
REMARK  178  A    between atoms: _425  and  _426
REMARK  179  A    between atoms: _428  and  _430
REMARK  180  A    between atoms: _430  and  _431
REMARK  181  A    between atoms: _433  and  _435
REMARK  182  A    between atoms: _435  and  _436
REMARK  183  A    between atoms: _435  and  _438
REMARK  184  A    between atoms: _438  and  _439
REMARK  185  A    between atoms: _445  and  _447
REMARK  186  A    between atoms: _447  and  _448
REMARK  187  A    between atoms: _447  and  _450
REMARK  188  A    between atoms: _450  and  _451
REMARK  189  A    between atoms: _454  and  _456
REMARK  190  A    between atoms: _456  and  _457
REMARK  191  A    between atoms: _456  and  _459
REMARK  192  A    between atoms: _459  and  _460
REMARK  193  A    between atoms: _463  and  _465
REMARK  194  A    between atoms: _465  and  _466
REMARK  195  A    between atoms: _465  and  _468
REMARK  196  A    between atoms: _468  and  _469
REMARK  197  A    between atoms: _473  and  _474
REMARK  198  A    between atoms: _479  and  _481
REMARK  199  A    between atoms: _481  and  _482
REMARK  200  A    between atoms: _481  and  _484
REMARK  201  A    between atoms: _487  and  _489
REMARK  202  A    between atoms: _489  and  _490
REMARK  203  A    between atoms: _489  and  _492
REMARK  204  A    between atoms: _492  and  _493
REMARK  205  A    between atoms: _498  and  _500
REMARK  206  A    between atoms: _500  and  _501
REMARK  207  A    between atoms: _500  and  _503
REMARK  208  A    between atoms: _503  and  _504
REMARK  209  A    between atoms: _507  and  _509
REMARK  210  A    between atoms: _509  and  _510
REMARK  211  A    between atoms: _509  and  _512
REMARK  212  A    between atoms: _512  and  _513
REMARK  213  A    between atoms: _516  and  _518
REMARK  214  A    between atoms: _518  and  _519
REMARK  215  A    between atoms: _521  and  _523
REMARK  216  A    between atoms: _523  and  _524
REMARK  217  A    between atoms: _523  and  _526
REMARK  218  A    between atoms: _526  and  _527
REMARK  219  A    between atoms: _527  and  _528
REMARK  220  A    between atoms: _528  and  _529
REMARK  221  A    between atoms: _538  and  _540
REMARK  222  A    between atoms: _540  and  _541
REMARK  223  A    between atoms: _540  and  _543
REMARK  224  A    between atoms: _543  and  _544
REMARK                            x       y       z     vdW  Elec       q    Type
REMARK                         _______ _______ _______ _____ _____    ______ ____
ROOT
ATOM      1  C   GLY A   5      21.441  19.690  17.445  0.00  0.00    +0.243 C 
ATOM      2  N   VAL A   6      20.206  19.329  17.768  0.00  0.00    -0.297 N 
ATOM      3  H   VAL A   6      19.434  20.026  17.790  0.00  0.00    +0.150 HD
ATOM      4  O   GLY A   5      22.476  19.028  17.482  0.00  0.00    -0.273 OA
ENDROOT
BRANCH   1   5
ATOM      5  CA  GLY A   5      21.522  21.128  16.941  0.00  0.00    +0.176 C 
BRANCH   5   8
ATOM      6  C   GLY A   4      23.386  22.396  16.088  0.00  0.00    +0.243 C 
ATOM      7  O   GLY A   4      23.006  23.410  16.679  0.00  0.00    -0.273 OA
ATOM      8  N   GLY A   5      22.754  21.253  16.210  0.00  0.00    -0.295 N 
ATOM      9  H   GLY A   5      23.159  20.406  15.762  0.00  0.00    +0.150 HD
BRANCH   6  10
ATOM     10  CA  GLY A   4      24.577  22.326  15.193  0.00  0.00    +0.176 C 
BRANCH  10  12
ATOM     11  C   ILE A   3      24.938  23.611  13.171  0.00  0.00    +0.241 C 
ATOM     12  N   GLY A   4      24.835  23.568  14.512  0.00  0.00    -0.295 N 
ATOM     13  H   GLY A   4      24.943  24.443  15.064  0.00  0.00    +0.150 HD
ATOM     14  O   ILE A   3      24.740  22.638  12.485  0.00  0.00    -0.273 OA
BRANCH  11  15
ATOM     15  CA  ILE A   3      25.375  24.948  12.617  0.00  0.00    +0.149 C 
BRANCH  15  18
ATOM     16  C   MET A   2      27.426  25.217  11.336  0.00  0.00    +0.241 C 
ATOM     17  O   MET A   2      27.870  26.034  12.132  0.00  0.00    -0.273 OA
ATOM     18  N   ILE A   3      26.232  24.681  11.461  0.00  0.00    -0.297 N 
ATOM     19  H   ILE A   3      25.885  24.046  10.714  0.00  0.00    +0.150 HD
BRANCH  16  20
ATOM     20  CA  MET A   2      28.279  24.850  10.138  0.00  0.00    +0.149 C 
BRANCH  20  22
ATOM     21  C   LYS A   1      28.510  26.490   8.347  0.00  0.00    +0.238 C 
ATOM     22  N   MET A   2      28.843  26.052   9.552  0.00  0.00    -0.297 N 
ATOM     23  H   MET A   2      29.540  26.594  10.103  0.00  0.00    +0.150 HD
ATOM     24  O   LYS A   1      27.808  25.826   7.557  0.00  0.00    -0.274 OA
BRANCH  21  25
ATOM     25  CA  LYS A   1      28.970  27.869   7.931  0.00  0.00    +0.145 C 
BRANCH  25  26
ATOM     26  N   LYS A   1      29.062  27.911   6.468  0.00  0.00    -0.238 NA
ATOM     27  H   LYS A   1      28.412  27.325   5.907  0.00  0.00    +0.142 HD
ENDBRANCH  25  26
BRANCH  25  28
ATOM     28  CB  LYS A   1      27.965  28.937   8.401  0.00  0.00    +0.026 C 
BRANCH  28  29
ATOM     29  CG  LYS A   1      27.881  29.128   9.908  0.00  0.00    -0.000 C 
BRANCH  29  30
ATOM     30  CD  LYS A   1      26.927  30.230  10.274  0.00  0.00    -0.024 C 
BRANCH  30  31
ATOM     31  CE  LYS A   1      26.825  30.451  11.768  0.00  0.00    -0.086 C 
BRANCH  31  32
ATOM     32  NZ  LYS A   1      27.977  31.318  12.136  0.00  0.00    +0.380 N 
ATOM     33  HZ1 LYS A   1      27.957  31.504  13.159  0.00  0.00    -0.089 HD
ATOM     34  HZ2 LYS A   1      28.865  30.837  11.887  0.00  0.00    -0.089 HD
ATOM     35  HZ3 LYS A   1      27.912  32.217  11.618  0.00  0.00    -0.089 HD
ENDBRANCH  31  32
ENDBRANCH  30  31
ENDBRANCH  29  30
ENDBRANCH  28  29
ENDBRANCH  25  28
ENDBRANCH  21  25
ENDBRANCH  20  22
BRANCH  20  36
ATOM     36  CB  MET A   2      29.396  23.941  10.656  0.00  0.00    +0.041 C 
BRANCH  36  37
ATOM     37  CG  MET A   2      30.175  23.161   9.609  0.00  0.00    +0.060 C 
BRANCH  37  38
ATOM     38  SD  MET A   2      29.164  21.813   8.953  0.00  0.00    -0.139 S 
ATOM     39  CE  MET A   2      29.803  20.440   9.937  0.00  0.00    +0.069 C 
ENDBRANCH  37  38
ENDBRANCH  36  37
ENDBRANCH  20  36
ENDBRANCH  16  20
ENDBRANCH  15  18
BRANCH  15  40
ATOM     40  CB  ILE A   3      24.139  25.832  12.336  0.00  0.00    +0.027 C 
ATOM     41  CG2 ILE A   3      24.542  27.237  11.958  0.00  0.00    +0.002 C 
BRANCH  40  42
ATOM     42  CG1 ILE A   3      23.195  25.202  11.316  0.00  0.00    +0.002 C 
ATOM     43  CD1 ILE A   3      21.869  25.923  11.143  0.00  0.00    +0.000 C 
ENDBRANCH  40  42
ENDBRANCH  15  40
ENDBRANCH  11  15
ENDBRANCH  10  12
ENDBRANCH   6  10
ENDBRANCH   5   8
ENDBRANCH   1   5
BRANCH   2  44
ATOM     44  CA  VAL A   6      19.959  17.918  18.094  0.00  0.00    +0.149 C 
BRANCH  44  45
ATOM     45  C   VAL A   6      20.272  17.118  16.849  0.00  0.00    +0.241 C 
ATOM     46  N   GLY A   7      21.016  16.014  16.993  0.00  0.00    -0.295 N 
ATOM     47  H   GLY A   7      21.376  15.717  17.922  0.00  0.00    +0.150 HD
ATOM     48  O   VAL A   6      19.834  17.465  15.737  0.00  0.00    -0.273 OA
BRANCH  46  49
ATOM     49  CA  GLY A   7      21.294  15.255  15.797  0.00  0.00    +0.176 C 
BRANCH  49  50
ATOM     50  C   GLY A   7      22.643  15.651  15.234  0.00  0.00    +0.243 C 
ATOM     51  N   GLY A   8      23.272  16.749  15.592  0.00  0.00    -0.295 N 
ATOM     52  H   GLY A   8      22.840  17.371  16.305  0.00  0.00    +0.150 HD
ATOM     53  O   GLY A   7      23.126  14.866  14.434  0.00  0.00    -0.273 OA
BRANCH  51  54
ATOM     54  CA  GLY A   8      24.560  17.115  15.014  0.00  0.00    +0.176 C 
BRANCH  54  55
ATOM     55  C   GLY A   8      24.490  18.351  14.133  0.00  0.00    +0.243 C 
ATOM     56  O   GLY A   8      23.624  19.221  14.335  0.00  0.00    -0.273 OA
ATOM     57  N   PHE A   9      25.456  18.455  13.210  0.00  0.00    -0.297 N 
ATOM     58  H   PHE A   9      26.102  17.656  13.048  0.00  0.00    +0.150 HD
BRANCH  57  59
ATOM     59  CA  PHE A   9      25.607  19.667  12.439  0.00  0.00    +0.153 C 
BRANCH  59  60
ATOM     60  C   PHE A   9      25.213  19.515  10.990  0.00  0.00    +0.241 C 
ATOM     61  O   PHE A   9      25.313  18.403  10.475  0.00  0.00    -0.273 OA
ATOM     62  N   ILE A  10      24.854  20.636  10.404  0.00  0.00    -0.298 N 
ATOM     63  H   ILE A  10      24.716  21.485  10.988  0.00  0.00    +0.150 HD
BRANCH  62  64
ATOM     64  CA  ILE A  10      24.642  20.731   8.960  0.00  0.00    +0.137 C 
BRANCH  64  65
ATOM     65  CB  ILE A  10      23.174  20.911   8.549  0.00  0.00    +0.026 C 
ATOM     66  CG2 ILE A  10      22.357  19.636   8.870  0.00  0.00    +0.002 C 
BRANCH  65  67
ATOM     67  CG1 ILE A  10      22.532  22.173   9.087  0.00  0.00    +0.002 C 
ATOM     68  CD1 ILE A  10      21.159  22.409   8.446  0.00  0.00    +0.000 C 
ENDBRANCH  65  67
ENDBRANCH  64  65
BRANCH  64  69
ATOM     69  C   ILE A  10      25.466  21.901   8.418  0.00  0.00    +0.227 C 
ATOM     70  O   ILE A  10      25.691  22.879   9.100  0.00  0.00    -0.286 OA
ENDBRANCH  64  69
ENDBRANCH  62  64
ENDBRANCH  59  60
BRANCH  59  71
ATOM     71  CB  PHE A   9      27.098  20.083  12.440  0.00  0.00    +0.055 C 
BRANCH  71  72
ATOM     72  CG  PHE A   9      27.564  20.653  13.762  0.00  0.00    -0.020 A 
ATOM     73  CD2 PHE A   9      27.811  19.794  14.834  0.00  0.00    -0.004 A 
ATOM     74  CE2 PHE A   9      28.265  20.293  16.022  0.00  0.00    -0.000 A 
ATOM     75  CZ  PHE A   9      28.425  21.654  16.158  0.00  0.00    -0.000 A 
ATOM     76  CE1 PHE A   9      28.193  22.513  15.125  0.00  0.00    -0.000 A 
ATOM     77  CD1 PHE A   9      27.782  22.014  13.897  0.00  0.00    -0.004 A 
ENDBRANCH  71  72
ENDBRANCH  59  71
ENDBRANCH  57  59
ENDBRANCH  54  55
ENDBRANCH  51  54
ENDBRANCH  49  50
ENDBRANCH  46  49
ENDBRANCH  44  45
BRANCH  44  78
ATOM     78  CB  VAL A   6      18.503  17.750  18.536  0.00  0.00    +0.027 C 
ATOM     79  CG2 VAL A   6      18.207  18.248  19.948  0.00  0.00    +0.002 C 
ATOM     80  CG1 VAL A   6      18.109  16.278  18.421  0.00  0.00    +0.002 C 
ENDBRANCH  44  78
ENDBRANCH   2  44
TORSDOF 35
REMARK  Name = ../refined-set-2016/2qd6/2qd6_pocket.pdb
REMARK  224 active torsions:
REMARK  status: ('A' for Active; 'I' for Inactive)
REMARK    1  A    between atoms: _1  and  _3
REMARK    2  A    between atoms: _3  and  _4
REMARK    3  A    between atoms: _3  and  _6
REMARK    4  A    between atoms: _6  and  _7
REMARK    5  A    between atoms: _7  and  _8
REMARK    6  A    between atoms: _8  and  _9
REMARK    7  A    between atoms: _18  and  _20
REMARK    8  A    between atoms: _20  and  _21
REMARK    9  A    between atoms: _20  and  _23
REMARK   10  A    between atoms: _23  and  _24
REMARK   11  A    between atoms: _27  and  _29
REMARK   12  A    between atoms: _29  and  _30
REMARK   13  A    between atoms: _29  and  _32
REMARK   14  A    between atoms: _32  and  _33
REMARK   15  A    between atoms: _36  and  _38
REMARK   16  A    between atoms: _38  and  _39
REMARK   17  A    between atoms: _38  and  _41
REMARK   18  A    between atoms: _41  and  _42
REMARK   19  A    between atoms: _45  and  _47
REMARK   20  A    between atoms: _47  and  _48
REMARK   21  A    between atoms: _47  and  _50
REMARK   22  A    between atoms: _50  and  _51
REMARK   23  A    between atoms: _54  and  _56
REMARK   24  A    between atoms: _56  and  _57
REMARK   25  A    between atoms: _59  and  _61
REMARK   26  A    between atoms: _61  and  _62
REMARK   27  A    between atoms: _65  and  _67
REMARK   28  A    between atoms: _67  and  _68
REMARK   29  A    between atoms: _67  and  _70
REMARK   30  A    between atoms: _70  and  _71
REMARK   31  A    between atoms: _74  and  _76
REMARK   32  A    between atoms: _76  and  _77
REMARK   33  A    between atoms: _76  and  _79
REMARK   34  A    between atoms: _79  and  _80
REMARK   35  A    between atoms: _83  and  _85
REMARK   36  A    between atoms: _85  and  _86
REMARK   37  A    between atoms: _85  and  _88
REMARK   38  A    between atoms: _88  and  _89
REMARK   39  A    between atoms: _92  and  _94
REMARK   40  A    between atoms: _94  and  _95
REMARK   41  A    between atoms: _94  and  _97
REMARK   42  A    between atoms: _100  and  _102
REMARK   43  A    between atoms: _102  and  _103
REMARK   44  A    between atoms: _102  and  _105
REMARK   45  A    between atoms: _105  and  _106
REMARK   46  A    between atoms: _106  and  _107
REMARK   47  A    between atoms: _107  and  _108
REMARK   48  A    between atoms: _108  and  _109
REMARK   49  A    between atoms: _113  and  _115
REMARK   50  A    between atoms: _115  and  _116
REMARK   51  A    between atoms: _115  and  _118
REMARK   52  A    between atoms: _118  and  _119
REMARK   53  A    between atoms: _119  and  _120
REMARK   54  A    between atoms: _122  and  _124
REMARK   55  A    between atoms: _124  and  _125
REMARK   56  A    between atoms: _124  and  _127
REMARK   57  A    between atoms: _127  and  _128
REMARK   58  A    between atoms: _131  and  _133
REMARK   59  A    between atoms: _133  and  _134
REMARK   60  A    between atoms: _136  and  _138
REMARK   61  A    between atoms: _138  and  _139
REMARK   62  A    between atoms: _141  and  _143
REMARK   63  A    between atoms: _143  and  _144
REMARK   64  A    between atoms: _143  and  _146
REMARK   65  A    between atoms: _149  and  _151
REMARK   66  A    between atoms: _151  and  _152
REMARK   67  A    between atoms: _154  and  _156
REMARK   68  A    between atoms: _156  and  _157
REMARK   69  A    between atoms: _159  and  _161
REMARK   70  A    between atoms: _161  and  _162
REMARK   71  A    between atoms: _161  and  _164
REMARK   72  A    between atoms: _164  and  _165
REMARK   73  A    between atoms: _171  and  _173
REMARK   74  A    between atoms: _173  and  _174
REMARK   75  A    between atoms: _173  and  _176
REMARK   76  A    between atoms: _176  and  _177
REMARK   77  A    between atoms: _180  and  _182
REMARK   78  A    between atoms: _182  and  _183
REMARK   79  A    between atoms: _182  and  _185
REMARK   80  A    between atoms: _185  and  _186
REMARK   81  A    between atoms: _189  and  _191
REMARK   82  A    between atoms: _191  and  _192
REMARK   83  A    between atoms: _191  and  _194
REMARK   84  A    between atoms: _194  and  _195
REMARK   85  A    between atoms: _199  and  _200
REMARK   86  A    between atoms: _205  and  _207
REMARK   87  A    between atoms: _207  and  _208
REMARK   88  A    between atoms: _207  and  _210
REMARK   89  A    between atoms: _213  and  _215
REMARK   90  A    between atoms: _215  and  _216
REMARK   91  A    between atoms: _215  and  _218
REMARK   92  A    between atoms: _218  and  _219
REMARK   93  A    between atoms: _224  and  _226
REMARK   94  A    between atoms: _226  and  _227
REMARK   95  A    between atoms: _226  and  _229
REMARK   96  A    between atoms: _229  and  _230
REMARK   97  A    between atoms: _233  and  _235
REMARK   98  A    between atoms: _235  and  _236
REMARK   99  A    between atoms: _235  and  _238
REMARK  100  A    between atoms: _238  and  _239
REMARK  101  A    between atoms: _242  and  _244
REMARK  102  A    between atoms: _244  and  _245
REMARK  103  A    between atoms: _247  and  _249
REMARK  104  A    between atoms: _249  and  _250
REMARK  105  A    between atoms: _249  and  _252
REMARK  106  A    between atoms: _252  and  _253
REMARK  107  A    between atoms: _253  and  _254
REMARK  108  A    between atoms: _254  and  _255
REMARK  109  A    between atoms: _264  and  _266
REMARK  110  A    between atoms: _266  and  _267
REMARK  111  A    between atoms: _266  and  _269
REMARK  112  A    between atoms: _269  and  _270
REMARK  113  A    between atoms: _275  and  _277
REMARK  114  A    between atoms: _277  and  _278
REMARK  115  A    between atoms: _277  and  _280
REMARK  116  A    between atoms: _280  and  _281
REMARK  117  A    between atoms: _281  and  _282
REMARK  118  A    between atoms: _282  and  _283
REMARK  119  A    between atoms: _292  and  _294
REMARK  120  A    between atoms: _294  and  _295
REMARK  121  A    between atoms: _294  and  _297
REMARK  122  A    between atoms: _297  and  _298
REMARK  123  A    between atoms: _301  and  _303
REMARK  124  A    between atoms: _303  and  _304
REMARK  125  A    between atoms: _303  and  _306
REMARK  126  A    between atoms: _306  and  _307
REMARK  127  A    between atoms: _310  and  _312
REMARK  128  A    between atoms: _312  and  _313
REMARK  129  A    between atoms: _312  and  _315
REMARK  130  A    between atoms: _315  and  _316
REMARK  131  A    between atoms: _319  and  _321
REMARK  132  A    between atoms: _321  and  _322
REMARK  133  A    between atoms: _321  and  _324
REMARK  134  A    between atoms: _324  and  _325
REMARK  135  A    between atoms: _328  and  _330
REMARK  136  A    between atoms: _330  and  _331
REMARK  137  A    between atoms: _333  and  _335
REMARK  138  A    between atoms: _335  and  _336
REMARK  139  A    between atoms: _339  and  _341
REMARK  140  A    between atoms: _341  and  _342
REMARK  141  A    between atoms: _341  and  _344
REMARK  142  A    between atoms: _344  and  _345
REMARK  143  A    between atoms: _348  and  _350
REMARK  144  A    between atoms: _350  and  _351
REMARK  145  A    between atoms: _350  and  _353
REMARK  146  A    between atoms: _353  and  _354
REMARK  147  A    between atoms: _357  and  _359
REMARK  148  A    between atoms: _359  and  _360
REMARK  149  A    between atoms: _359  and  _362
REMARK  150  A    between atoms: _362  and  _363
REMARK  151  A    between atoms: _366  and  _368
REMARK  152  A    between atoms: _368  and  _369
REMARK  153  A    between atoms: _368  and  _371
REMARK  154  A    between atoms: _374  and  _376
REMARK  155  A    between atoms: _376  and  _377
REMARK  156  A    between atoms: _376  and  _379
REMARK  157  A    between atoms: _379  and  _380
REMARK  158  A    between atoms: _380  and  _381
REMARK  159  A    between atoms: _381  and  _382
REMARK  160  A    between atoms: _382  and  _383
REMARK  161  A    between atoms: _387  and  _389
REMARK  162  A    between atoms: _389  and  _390
REMARK  163  A    between atoms: _389  and  _392
REMARK  164  A    between atoms: _392  and  _393
REMARK  165  A    between atoms: _393  and  _394
REMARK  166  A    between atoms: _396  and  _398
REMARK  167  A    between atoms: _398  and  _399
REMARK  168  A    between atoms: _398  and  _401
REMARK  169  A    between atoms: _401  and  _402
REMARK  170  A    between atoms: _405  and  _407
REMARK  171  A    between atoms: _407  and  _408
REMARK  172  A    between atoms: _410  and  _412
REMARK  173  A    between atoms: _412  and  _413
REMARK  174  A    between atoms: _415  and  _417
REMARK  175  A    between atoms: _417  and  _418
REMARK  176  A    between atoms: _417  and  _420
REMARK  177  A    between atoms: _423  and  _425
REMARK  178  A    between atoms: _425  and  _426
REMARK  179  A    between atoms: _428  and  _430
REMARK  180  A    between atoms: _430  and  _431
REMARK  181  A    between atoms: _433  and  _435
REMARK  182  A    between atoms: _435  and  _436
REMARK  183  A    between atoms: _435  and  _438
REMARK  184  A    between atoms: _438  and  _439
REMARK  185  A    between atoms: _445  and  _447
REMARK  186  A    between atoms: _447  and  _448
REMARK  187  A    between atoms: _447  and  _450
REMARK  188  A    between atoms: _450  and  _451
REMARK  189  A    between atoms: _454  and  _456
REMARK  190  A    between atoms: _456  and  _457
REMARK  191  A    between atoms: _456  and  _459
REMARK  192  A    between atoms: _459  and  _460
REMARK  193  A    between atoms: _463  and  _465
REMARK  194  A    between atoms: _465  and  _466
REMARK  195  A    between atoms: _465  and  _468
REMARK  196  A    between atoms: _468  and  _469
REMARK  197  A    between atoms: _473  and  _474
REMARK  198  A    between atoms: _479  and  _481
REMARK  199  A    between atoms: _481  and  _482
REMARK  200  A    between atoms: _481  and  _484
REMARK  201  A    between atoms: _487  and  _489
REMARK  202  A    between atoms: _489  and  _490
REMARK  203  A    between atoms: _489  and  _492
REMARK  204  A    between atoms: _492  and  _493
REMARK  205  A    between atoms: _498  and  _500
REMARK  206  A    between atoms: _500  and  _501
REMARK  207  A    between atoms: _500  and  _503
REMARK  208  A    between atoms: _503  and  _504
REMARK  209  A    between atoms: _507  and  _509
REMARK  210  A    between atoms: _509  and  _510
REMARK  211  A    between atoms: _509  and  _512
REMARK  212  A    between atoms: _512  and  _513
REMARK  213  A    between atoms: _516  and  _518
REMARK  214  A    between atoms: _518  and  _519
REMARK  215  A    between atoms: _521  and  _523
REMARK  216  A    between atoms: _523  and  _524
REMARK  217  A    between atoms: _523  and  _526
REMARK  218  A    between atoms: _526  and  _527
REMARK  219  A    between atoms: _527  and  _528
REMARK  220  A    between atoms: _528  and  _529
REMARK  221  A    between atoms: _538  and  _540
REMARK  222  A    between atoms: _540  and  _541
REMARK  223  A    between atoms: _540  and  _543
REMARK  224  A    between atoms: _543  and  _544
REMARK                            x       y       z     vdW  Elec       q    Type
REMARK                         _______ _______ _______ _____ _____    ______ ____
ROOT
ATOM      1  CA  LEU A   1      21.342  30.644   6.659  0.00  0.00    +0.133 C 
ENDROOT
BRANCH   1   2
ATOM      2  N   LEU A   1      20.604  31.858   7.016  0.00  0.00    -0.239 NA
ATOM      3  H   LEU A   1      19.950  31.817   7.824  0.00  0.00    +0.142 HD
ENDBRANCH   1   2
BRANCH   1   4
ATOM      4  C   LEU A   1      20.450  29.784   5.824  0.00  0.00    +0.224 C 
ATOM      5  O   LEU A   1      19.282  29.638   6.121  0.00  0.00    -0.287 OA
ENDBRANCH   1   4
BRANCH   1   6
ATOM      6  CB  LEU A   1      21.716  29.918   7.953  0.00  0.00    +0.025 C 
BRANCH   6   7
ATOM      7  CG  LEU A   1      22.446  30.780   8.995  0.00  0.00    +0.002 C 
ATOM      8  CD2 LEU A   1      22.836  29.918  10.175  0.00  0.00    +0.000 C 
ATOM      9  CD1 LEU A   1      23.652  31.492   8.409  0.00  0.00    +0.000 C 
ENDBRANCH   6   7
ENDBRANCH   1   6
TORSDOF 4
REMARK  Name = ../refined-set-2016/2qd6/2qd6_pocket.pdb
REMARK  224 active torsions:
REMARK  status: ('A' for Active; 'I' for Inactive)
REMARK    1  A    between atoms: _1  and  _3
REMARK    2  A    between atoms: _3  and  _4
REMARK    3  A    between atoms: _3  and  _6
REMARK    4  A    between atoms: _6  and  _7
REMARK    5  A    between atoms: _7  and  _8
REMARK    6  A    between atoms: _8  and  _9
REMARK    7  A    between atoms: _18  and  _20
REMARK    8  A    between atoms: _20  and  _21
REMARK    9  A    between atoms: _20  and  _23
REMARK   10  A    between atoms: _23  and  _24
REMARK   11  A    between atoms: _27  and  _29
REMARK   12  A    between atoms: _29  and  _30
REMARK   13  A    between atoms: _29  and  _32
REMARK   14  A    between atoms: _32  and  _33
REMARK   15  A    between atoms: _36  and  _38
REMARK   16  A    between atoms: _38  and  _39
REMARK   17  A    between atoms: _38  and  _41
REMARK   18  A    between atoms: _41  and  _42
REMARK   19  A    between atoms: _45  and  _47
REMARK   20  A    between atoms: _47  and  _48
REMARK   21  A    between atoms: _47  and  _50
REMARK   22  A    between atoms: _50  and  _51
REMARK   23  A    between atoms: _54  and  _56
REMARK   24  A    between atoms: _56  and  _57
REMARK   25  A    between atoms: _59  and  _61
REMARK   26  A    between atoms: _61  and  _62
REMARK   27  A    between atoms: _65  and  _67
REMARK   28  A    between atoms: _67  and  _68
REMARK   29  A    between atoms: _67  and  _70
REMARK   30  A    between atoms: _70  and  _71
REMARK   31  A    between atoms: _74  and  _76
REMARK   32  A    between atoms: _76  and  _77
REMARK   33  A    between atoms: _76  and  _79
REMARK   34  A    between atoms: _79  and  _80
REMARK   35  A    between atoms: _83  and  _85
REMARK   36  A    between atoms: _85  and  _86
REMARK   37  A    between atoms: _85  and  _88
REMARK   38  A    between atoms: _88  and  _89
REMARK   39  A    between atoms: _92  and  _94
REMARK   40  A    between atoms: _94  and  _95
REMARK   41  A    between atoms: _94  and  _97
REMARK   42  A    between atoms: _100  and  _102
REMARK   43  A    between atoms: _102  and  _103
REMARK   44  A    between atoms: _102  and  _105
REMARK   45  A    between atoms: _105  and  _106
REMARK   46  A    between atoms: _106  and  _107
REMARK   47  A    between atoms: _107  and  _108
REMARK   48  A    between atoms: _108  and  _109
REMARK   49  A    between atoms: _113  and  _115
REMARK   50  A    between atoms: _115  and  _116
REMARK   51  A    between atoms: _115  and  _118
REMARK   52  A    between atoms: _118  and  _119
REMARK   53  A    between atoms: _119  and  _120
REMARK   54  A    between atoms: _122  and  _124
REMARK   55  A    between atoms: _124  and  _125
REMARK   56  A    between atoms: _124  and  _127
REMARK   57  A    between atoms: _127  and  _128
REMARK   58  A    between atoms: _131  and  _133
REMARK   59  A    between atoms: _133  and  _134
REMARK   60  A    between atoms: _136  and  _138
REMARK   61  A    between atoms: _138  and  _139
REMARK   62  A    between atoms: _141  and  _143
REMARK   63  A    between atoms: _143  and  _144
REMARK   64  A    between atoms: _143  and  _146
REMARK   65  A    between atoms: _149  and  _151
REMARK   66  A    between atoms: _151  and  _152
REMARK   67  A    between atoms: _154  and  _156
REMARK   68  A    between atoms: _156  and  _157
REMARK   69  A    between atoms: _159  and  _161
REMARK   70  A    between atoms: _161  and  _162
REMARK   71  A    between atoms: _161  and  _164
REMARK   72  A    between atoms: _164  and  _165
REMARK   73  A    between atoms: _171  and  _173
REMARK   74  A    between atoms: _173  and  _174
REMARK   75  A    between atoms: _173  and  _176
REMARK   76  A    between atoms: _176  and  _177
REMARK   77  A    between atoms: _180  and  _182
REMARK   78  A    between atoms: _182  and  _183
REMARK   79  A    between atoms: _182  and  _185
REMARK   80  A    between atoms: _185  and  _186
REMARK   81  A    between atoms: _189  and  _191
REMARK   82  A    between atoms: _191  and  _192
REMARK   83  A    between atoms: _191  and  _194
REMARK   84  A    between atoms: _194  and  _195
REMARK   85  A    between atoms: _199  and  _200
REMARK   86  A    between atoms: _205  and  _207
REMARK   87  A    between atoms: _207  and  _208
REMARK   88  A    between atoms: _207  and  _210
REMARK   89  A    between atoms: _213  and  _215
REMARK   90  A    between atoms: _215  and  _216
REMARK   91  A    between atoms: _215  and  _218
REMARK   92  A    between atoms: _218  and  _219
REMARK   93  A    between atoms: _224  and  _226
REMARK   94  A    between atoms: _226  and  _227
REMARK   95  A    between atoms: _226  and  _229
REMARK   96  A    between atoms: _229  and  _230
REMARK   97  A    between atoms: _233  and  _235
REMARK   98  A    between atoms: _235  and  _236
REMARK   99  A    between atoms: _235  and  _238
REMARK  100  A    between atoms: _238  and  _239
REMARK  101  A    between atoms: _242  and  _244
REMARK  102  A    between atoms: _244  and  _245
REMARK  103  A    between atoms: _247  and  _249
REMARK  104  A    between atoms: _249  and  _250
REMARK  105  A    between atoms: _249  and  _252
REMARK  106  A    between atoms: _252  and  _253
REMARK  107  A    between atoms: _253  and  _254
REMARK  108  A    between atoms: _254  and  _255
REMARK  109  A    between atoms: _264  and  _266
REMARK  110  A    between atoms: _266  and  _267
REMARK  111  A    between atoms: _266  and  _269
REMARK  112  A    between atoms: _269  and  _270
REMARK  113  A    between atoms: _275  and  _277
REMARK  114  A    between atoms: _277  and  _278
REMARK  115  A    between atoms: _277  and  _280
REMARK  116  A    between atoms: _280  and  _281
REMARK  117  A    between atoms: _281  and  _282
REMARK  118  A    between atoms: _282  and  _283
REMARK  119  A    between atoms: _292  and  _294
REMARK  120  A    between atoms: _294  and  _295
REMARK  121  A    between atoms: _294  and  _297
REMARK  122  A    between atoms: _297  and  _298
REMARK  123  A    between atoms: _301  and  _303
REMARK  124  A    between atoms: _303  and  _304
REMARK  125  A    between atoms: _303  and  _306
REMARK  126  A    between atoms: _306  and  _307
REMARK  127  A    between atoms: _310  and  _312
REMARK  128  A    between atoms: _312  and  _313
REMARK  129  A    between atoms: _312  and  _315
REMARK  130  A    between atoms: _315  and  _316
REMARK  131  A    between atoms: _319  and  _321
REMARK  132  A    between atoms: _321  and  _322
REMARK  133  A    between atoms: _321  and  _324
REMARK  134  A    between atoms: _324  and  _325
REMARK  135  A    between atoms: _328  and  _330
REMARK  136  A    between atoms: _330  and  _331
REMARK  137  A    between atoms: _333  and  _335
REMARK  138  A    between atoms: _335  and  _336
REMARK  139  A    between atoms: _339  and  _341
REMARK  140  A    between atoms: _341  and  _342
REMARK  141  A    between atoms: _341  and  _344
REMARK  142  A    between atoms: _344  and  _345
REMARK  143  A    between atoms: _348  and  _350
REMARK  144  A    between atoms: _350  and  _351
REMARK  145  A    between atoms: _350  and  _353
REMARK  146  A    between atoms: _353  and  _354
REMARK  147  A    between atoms: _357  and  _359
REMARK  148  A    between atoms: _359  and  _360
REMARK  149  A    between atoms: _359  and  _362
REMARK  150  A    between atoms: _362  and  _363
REMARK  151  A    between atoms: _366  and  _368
REMARK  152  A    between atoms: _368  and  _369
REMARK  153  A    between atoms: _368  and  _371
REMARK  154  A    between atoms: _374  and  _376
REMARK  155  A    between atoms: _376  and  _377
REMARK  156  A    between atoms: _376  and  _379
REMARK  157  A    between atoms: _379  and  _380
REMARK  158  A    between atoms: _380  and  _381
REMARK  159  A    between atoms: _381  and  _382
REMARK  160  A    between atoms: _382  and  _383
REMARK  161  A    between atoms: _387  and  _389
REMARK  162  A    between atoms: _389  and  _390
REMARK  163  A    between atoms: _389  and  _392
REMARK  164  A    between atoms: _392  and  _393
REMARK  165  A    between atoms: _393  and  _394
REMARK  166  A    between atoms: _396  and  _398
REMARK  167  A    between atoms: _398  and  _399
REMARK  168  A    between atoms: _398  and  _401
REMARK  169  A    between atoms: _401  and  _402
REMARK  170  A    between atoms: _405  and  _407
REMARK  171  A    between atoms: _407  and  _408
REMARK  172  A    between atoms: _410  and  _412
REMARK  173  A    between atoms: _412  and  _413
REMARK  174  A    between atoms: _415  and  _417
REMARK  175  A    between atoms: _417  and  _418
REMARK  176  A    between atoms: _417  and  _420
REMARK  177  A    between atoms: _423  and  _425
REMARK  178  A    between atoms: _425  and  _426
REMARK  179  A    between atoms: _428  and  _430
REMARK  180  A    between atoms: _430  and  _431
REMARK  181  A    between atoms: _433  and  _435
REMARK  182  A    between atoms: _435  and  _436
REMARK  183  A    between atoms: _435  and  _438
REMARK  184  A    between atoms: _438  and  _439
REMARK  185  A    between atoms: _445  and  _447
REMARK  186  A    between atoms: _447  and  _448
REMARK  187  A    between atoms: _447  and  _450
REMARK  188  A    between atoms: _450  and  _451
REMARK  189  A    between atoms: _454  and  _456
REMARK  190  A    between atoms: _456  and  _457
REMARK  191  A    between atoms: _456  and  _459
REMARK  192  A    between atoms: _459  and  _460
REMARK  193  A    between atoms: _463  and  _465
REMARK  194  A    between atoms: _465  and  _466
REMARK  195  A    between atoms: _465  and  _468
REMARK  196  A    between atoms: _468  and  _469
REMARK  197  A    between atoms: _473  and  _474
REMARK  198  A    between atoms: _479  and  _481
REMARK  199  A    between atoms: _481  and  _482
REMARK  200  A    between atoms: _481  and  _484
REMARK  201  A    between atoms: _487  and  _489
REMARK  202  A    between atoms: _489  and  _490
REMARK  203  A    between atoms: _489  and  _492
REMARK  204  A    between atoms: _492  and  _493
REMARK  205  A    between atoms: _498  and  _500
REMARK  206  A    between atoms: _500  and  _501
REMARK  207  A    between atoms: _500  and  _503
REMARK  208  A    between atoms: _503  and  _504
REMARK  209  A    between atoms: _507  and  _509
REMARK  210  A    between atoms: _509  and  _510
REMARK  211  A    between atoms: _509  and  _512
REMARK  212  A    between atoms: _512  and  _513
REMARK  213  A    between atoms: _516  and  _518
REMARK  214  A    between atoms: _518  and  _519
REMARK  215  A    between atoms: _521  and  _523
REMARK  216  A    between atoms: _523  and  _524
REMARK  217  A    between atoms: _523  and  _526
REMARK  218  A    between atoms: _526  and  _527
REMARK  219  A    between atoms: _527  and  _528
REMARK  220  A    between atoms: _528  and  _529
REMARK  221  A    between atoms: _538  and  _540
REMARK  222  A    between atoms: _540  and  _541
REMARK  223  A    between atoms: _540  and  _543
REMARK  224  A    between atoms: _543  and  _544
REMARK                            x       y       z     vdW  Elec       q    Type
REMARK                         _______ _______ _______ _____ _____    ______ ____
ROOT
ATOM      1  C   ILE A   5      13.532  29.937  11.426  0.00  0.00    +0.241 C 
ATOM      2  N   ILE A   6      12.699  30.702  12.094  0.00  0.00    -0.297 N 
ATOM      3  H   ILE A   6      11.813  30.291  12.451  0.00  0.00    +0.150 HD
ATOM      4  O   ILE A   5      14.549  30.346  10.844  0.00  0.00    -0.273 OA
ENDROOT
BRANCH   2   5
ATOM      5  CA  ILE A   6      12.983  32.126  12.353  0.00  0.00    +0.149 C 
BRANCH   5   6
ATOM      6  C   ILE A   6      13.610  32.196  13.740  0.00  0.00    +0.241 C 
ATOM      7  O   ILE A   6      12.931  31.896  14.756  0.00  0.00    -0.273 OA
ATOM      8  N   GLY A   7      14.880  32.558  13.782  0.00  0.00    -0.295 N 
ATOM      9  H   GLY A   7      15.362  32.819  12.898  0.00  0.00    +0.150 HD
BRANCH   8  10
ATOM     10  CA  GLY A   7      15.612  32.600  15.015  0.00  0.00    +0.176 C 
BRANCH  10  11
ATOM     11  C   GLY A   7      15.691  33.988  15.641  0.00  0.00    +0.243 C 
ATOM     12  N   ARG A   8      16.398  34.040  16.780  0.00  0.00    -0.297 N 
ATOM     13  H   ARG A   8      16.944  33.214  17.098  0.00  0.00    +0.150 HD
ATOM     14  O   GLY A   7      15.131  34.952  15.125  0.00  0.00    -0.273 OA
BRANCH  12  15
ATOM     15  CA  ARG A   8      16.393  35.267  17.568  0.00  0.00    +0.149 C 
BRANCH  15  16
ATOM     16  C   ARG A   8      16.896  36.492  16.817  0.00  0.00    +0.241 C 
ATOM     17  O   ARG A   8      16.431  37.586  17.080  0.00  0.00    -0.273 OA
ATOM     18  N   ASN A   9      17.833  36.297  15.879  0.00  0.00    -0.298 N 
ATOM     19  H   ASN A   9      18.177  35.337  15.674  0.00  0.00    +0.150 HD
BRANCH  18  20
ATOM     20  CA  ASN A   9      18.370  37.445  15.144  0.00  0.00    +0.146 C 
BRANCH  20  21
ATOM     21  C   ASN A   9      17.286  38.251  14.421  0.00  0.00    +0.227 C 
ATOM     22  O   ASN A   9      17.442  39.440  14.223  0.00  0.00    -0.286 OA
ENDBRANCH  20  21
BRANCH  20  23
ATOM     23  CB  ASN A   9      19.456  37.005  14.161  0.00  0.00    +0.112 C 
BRANCH  23  24
ATOM     24  CG  ASN A   9      18.949  36.251  12.955  0.00  0.00    +0.222 C 
ATOM     25  OD1 ASN A   9      18.219  35.264  13.073  0.00  0.00    -0.275 OA
ATOM     26  ND2 ASN A   9      19.334  36.757  11.800  0.00  0.00    -0.329 N 
ATOM     27 HD21 ASN A   9      19.952  37.593  11.779  0.00  0.00    +0.145 HD
ATOM     28 HD22 ASN A   9      19.020  36.320  10.910  0.00  0.00    +0.145 HD
ENDBRANCH  23  24
ENDBRANCH  20  23
ENDBRANCH  18  20
ENDBRANCH  15  16
BRANCH  15  29
ATOM     29  CB  ARG A   8      17.201  35.054  18.835  0.00  0.00    +0.033 C 
BRANCH  29  30
ATOM     30  CG  ARG A   8      16.560  34.095  19.815  0.00  0.00    +0.045 C 
BRANCH  30  31
ATOM     31  CD  ARG A   8      17.261  34.039  21.164  0.00  0.00    +0.174 C 
BRANCH  31  32
ATOM     32  NE  ARG A   8      18.659  33.625  21.010  0.00  0.00    -0.265 N 
ATOM     33  CZ  ARG A   8      19.756  34.376  20.956  0.00  0.00    +0.342 C 
ATOM     34  NH2 ARG A   8      19.683  35.711  21.095  0.00  0.00    -0.292 N 
ATOM     35 HH21 ARG A   8      18.761  36.168  21.247  0.00  0.00    +0.255 HD
ATOM     36 HH22 ARG A   8      20.548  36.286  21.051  0.00  0.00    +0.255 HD
ATOM     37  NH1 ARG A   8      20.951  33.826  20.780  0.00  0.00    -0.292 N 
ATOM     38 HH11 ARG A   8      21.799  34.427  20.740  0.00  0.00    +0.255 HD
ATOM     39 HH12 ARG A   8      21.039  32.794  20.682  0.00  0.00    +0.255 HD
ATOM     40  HE  ARG A   8      18.815  32.600  20.932  0.00  0.00    +0.259 HD
ENDBRANCH  31  32
ENDBRANCH  30  31
ENDBRANCH  29  30
ENDBRANCH  15  29
ENDBRANCH  12  15
ENDBRANCH  10  11
ENDBRANCH   8  10
ENDBRANCH   5   6
BRANCH   5  41
ATOM     41  CB  ILE A   6      11.749  33.025  12.292  0.00  0.00    +0.027 C 
ATOM     42  CG2 ILE A   6      12.080  34.481  12.619  0.00  0.00    +0.002 C 
BRANCH  41  43
ATOM     43  CG1 ILE A   6      11.036  32.941  10.951  0.00  0.00    +0.002 C 
ATOM     44  CD1 ILE A   6      11.935  33.205   9.738  0.00  0.00    +0.000 C 
ENDBRANCH  41  43
ENDBRANCH   5  41
ENDBRANCH   2   5
BRANCH   1  45
ATOM     45  CA  ILE A   5      13.216  28.475  11.400  0.00  0.00    +0.149 C 
BRANCH  45  48
ATOM     46  C   ASN A   4      12.033  27.334   9.582  0.00  0.00    +0.241 C 
ATOM     47  O   ASN A   4      10.980  27.202  10.189  0.00  0.00    -0.273 OA
ATOM     48  N   ILE A   5      13.099  27.945  10.042  0.00  0.00    -0.297 N 
ATOM     49  H   ILE A   5      13.911  28.059   9.402  0.00  0.00    +0.150 HD
BRANCH  46  50
ATOM     50  CA  ASN A   4      12.170  26.747   8.179  0.00  0.00    +0.158 C 
BRANCH  50  53
ATOM     51  C   VAL A   3      12.459  24.395   8.739  0.00  0.00    +0.241 C 
ATOM     52  O   VAL A   3      13.620  24.617   9.119  0.00  0.00    -0.273 OA
ATOM     53  N   ASN A   4      11.723  25.350   8.193  0.00  0.00    -0.297 N 
ATOM     54  H   ASN A   4      10.808  25.105   7.765  0.00  0.00    +0.150 HD
BRANCH  51  55
ATOM     55  CA  VAL A   3      11.879  23.009   8.875  0.00  0.00    +0.149 C 
BRANCH  55  57
ATOM     56  C   PRO A   2      12.821  20.851   8.206  0.00  0.00    +0.241 C 
ATOM     57  N   VAL A   3      12.969  22.063   8.703  0.00  0.00    -0.297 N 
ATOM     58  H   VAL A   3      13.924  22.360   8.989  0.00  0.00    +0.150 HD
ATOM     59  O   PRO A   2      11.724  20.436   7.810  0.00  0.00    -0.273 OA
BRANCH  56  65
ATOM     60  C   THR A   1      15.775  21.333   7.355  0.00  0.00    +0.244 C 
ATOM     61  N   PRO A   2      15.314  20.545   8.329  0.00  0.00    -0.272 N 
ATOM     62  CD  PRO A   2      15.951  20.157   9.604  0.00  0.00    +0.094 C 
ATOM     63  CG  PRO A   2      14.943  19.274  10.229  0.00  0.00    +0.024 C 
ATOM     64  CB  PRO A   2      13.882  18.926   9.300  0.00  0.00    +0.031 C 
ATOM     65  CA  PRO A   2      14.017  19.893   8.134  0.00  0.00    +0.152 C 
ATOM     66  O   THR A   1      15.209  21.535   6.261  0.00  0.00    -0.273 OA
BRANCH  60  67
ATOM     67  CA  THR A   1      17.088  22.058   7.634  0.00  0.00    +0.172 C 
BRANCH  67  68
ATOM     68  N   THR A   1      17.879  22.096   6.401  0.00  0.00    -0.236 NA
ATOM     69  H   THR A   1      17.932  22.991   5.874  0.00  0.00    +0.142 HD
ENDBRANCH  67  68
BRANCH  67  70
ATOM     70  CB  THR A   1      16.887  23.481   8.182  0.00  0.00    +0.135 C 
ATOM     71  CG2 THR A   1      16.229  24.453   7.206  0.00  0.00    +0.034 C 
BRANCH  70  72
ATOM     72  OG1 THR A   1      16.047  23.398   9.337  0.00  0.00    -0.383 OA
ATOM     73  HG1 THR A   1      15.175  23.004   9.082  0.00  0.00    +0.210 HD
ENDBRANCH  70  72
ENDBRANCH  67  70
ENDBRANCH  60  67
ENDBRANCH  56  65
ENDBRANCH  55  57
BRANCH  55  74
ATOM     74  CB  VAL A   3      11.339  22.842  10.323  0.00  0.00    +0.027 C 
ATOM     75  CG2 VAL A   3      10.480  23.991  10.799  0.00  0.00    +0.002 C 
ATOM     76  CG1 VAL A   3      10.567  21.512  10.511  0.00  0.00    +0.002 C 
ENDBRANCH  55  74
ENDBRANCH  51  55
ENDBRANCH  50  53
BRANCH  50  77
ATOM     77  CB  ASN A   4      11.329  27.555   7.199  0.00  0.00    +0.114 C 
BRANCH  77  78
ATOM     78  CG  ASN A   4      11.455  27.063   5.746  0.00  0.00    +0.222 C 
ATOM     79  OD1 ASN A   4      12.549  26.732   5.291  0.00  0.00    -0.275 OA
ATOM     80  ND2 ASN A   4      10.327  27.017   5.039  0.00  0.00    -0.329 N 
ATOM     81 HD21 ASN A   4       9.429  27.309   5.474  0.00  0.00    +0.145 HD
ATOM     82 HD22 ASN A   4      10.345  26.689   4.052  0.00  0.00    +0.145 HD
ENDBRANCH  77  78
ENDBRANCH  50  77
ENDBRANCH  46  50
ENDBRANCH  45  48
BRANCH  45  83
ATOM     83  CB  ILE A   5      14.291  27.714  12.205  0.00  0.00    +0.027 C 
ATOM     84  CG2 ILE A   5      14.500  28.412  13.549  0.00  0.00    +0.002 C 
BRANCH  83  85
ATOM     85  CG1 ILE A   5      13.982  26.229  12.320  0.00  0.00    +0.002 C 
ATOM     86  CD1 ILE A   5      15.272  25.436  12.508  0.00  0.00    +0.000 C 
ENDBRANCH  83  85
ENDBRANCH  45  83
ENDBRANCH   1  45
TORSDOF 32
REMARK  Name = ../refined-set-2016/2qd6/2qd6_pocket.pdb
REMARK  224 active torsions:
REMARK  status: ('A' for Active; 'I' for Inactive)
REMARK    1  A    between atoms: _1  and  _3
REMARK    2  A    between atoms: _3  and  _4
REMARK    3  A    between atoms: _3  and  _6
REMARK    4  A    between atoms: _6  and  _7
REMARK    5  A    between atoms: _7  and  _8
REMARK    6  A    between atoms: _8  and  _9
REMARK    7  A    between atoms: _18  and  _20
REMARK    8  A    between atoms: _20  and  _21
REMARK    9  A    between atoms: _20  and  _23
REMARK   10  A    between atoms: _23  and  _24
REMARK   11  A    between atoms: _27  and  _29
REMARK   12  A    between atoms: _29  and  _30
REMARK   13  A    between atoms: _29  and  _32
REMARK   14  A    between atoms: _32  and  _33
REMARK   15  A    between atoms: _36  and  _38
REMARK   16  A    between atoms: _38  and  _39
REMARK   17  A    between atoms: _38  and  _41
REMARK   18  A    between atoms: _41  and  _42
REMARK   19  A    between atoms: _45  and  _47
REMARK   20  A    between atoms: _47  and  _48
REMARK   21  A    between atoms: _47  and  _50
REMARK   22  A    between atoms: _50  and  _51
REMARK   23  A    between atoms: _54  and  _56
REMARK   24  A    between atoms: _56  and  _57
REMARK   25  A    between atoms: _59  and  _61
REMARK   26  A    between atoms: _61  and  _62
REMARK   27  A    between atoms: _65  and  _67
REMARK   28  A    between atoms: _67  and  _68
REMARK   29  A    between atoms: _67  and  _70
REMARK   30  A    between atoms: _70  and  _71
REMARK   31  A    between atoms: _74  and  _76
REMARK   32  A    between atoms: _76  and  _77
REMARK   33  A    between atoms: _76  and  _79
REMARK   34  A    between atoms: _79  and  _80
REMARK   35  A    between atoms: _83  and  _85
REMARK   36  A    between atoms: _85  and  _86
REMARK   37  A    between atoms: _85  and  _88
REMARK   38  A    between atoms: _88  and  _89
REMARK   39  A    between atoms: _92  and  _94
REMARK   40  A    between atoms: _94  and  _95
REMARK   41  A    between atoms: _94  and  _97
REMARK   42  A    between atoms: _100  and  _102
REMARK   43  A    between atoms: _102  and  _103
REMARK   44  A    between atoms: _102  and  _105
REMARK   45  A    between atoms: _105  and  _106
REMARK   46  A    between atoms: _106  and  _107
REMARK   47  A    between atoms: _107  and  _108
REMARK   48  A    between atoms: _108  and  _109
REMARK   49  A    between atoms: _113  and  _115
REMARK   50  A    between atoms: _115  and  _116
REMARK   51  A    between atoms: _115  and  _118
REMARK   52  A    between atoms: _118  and  _119
REMARK   53  A    between atoms: _119  and  _120
REMARK   54  A    between atoms: _122  and  _124
REMARK   55  A    between atoms: _124  and  _125
REMARK   56  A    between atoms: _124  and  _127
REMARK   57  A    between atoms: _127  and  _128
REMARK   58  A    between atoms: _131  and  _133
REMARK   59  A    between atoms: _133  and  _134
REMARK   60  A    between atoms: _136  and  _138
REMARK   61  A    between atoms: _138  and  _139
REMARK   62  A    between atoms: _141  and  _143
REMARK   63  A    between atoms: _143  and  _144
REMARK   64  A    between atoms: _143  and  _146
REMARK   65  A    between atoms: _149  and  _151
REMARK   66  A    between atoms: _151  and  _152
REMARK   67  A    between atoms: _154  and  _156
REMARK   68  A    between atoms: _156  and  _157
REMARK   69  A    between atoms: _159  and  _161
REMARK   70  A    between atoms: _161  and  _162
REMARK   71  A    between atoms: _161  and  _164
REMARK   72  A    between atoms: _164  and  _165
REMARK   73  A    between atoms: _171  and  _173
REMARK   74  A    between atoms: _173  and  _174
REMARK   75  A    between atoms: _173  and  _176
REMARK   76  A    between atoms: _176  and  _177
REMARK   77  A    between atoms: _180  and  _182
REMARK   78  A    between atoms: _182  and  _183
REMARK   79  A    between atoms: _182  and  _185
REMARK   80  A    between atoms: _185  and  _186
REMARK   81  A    between atoms: _189  and  _191
REMARK   82  A    between atoms: _191  and  _192
REMARK   83  A    between atoms: _191  and  _194
REMARK   84  A    between atoms: _194  and  _195
REMARK   85  A    between atoms: _199  and  _200
REMARK   86  A    between atoms: _205  and  _207
REMARK   87  A    between atoms: _207  and  _208
REMARK   88  A    between atoms: _207  and  _210
REMARK   89  A    between atoms: _213  and  _215
REMARK   90  A    between atoms: _215  and  _216
REMARK   91  A    between atoms: _215  and  _218
REMARK   92  A    between atoms: _218  and  _219
REMARK   93  A    between atoms: _224  and  _226
REMARK   94  A    between atoms: _226  and  _227
REMARK   95  A    between atoms: _226  and  _229
REMARK   96  A    between atoms: _229  and  _230
REMARK   97  A    between atoms: _233  and  _235
REMARK   98  A    between atoms: _235  and  _236
REMARK   99  A    between atoms: _235  and  _238
REMARK  100  A    between atoms: _238  and  _239
REMARK  101  A    between atoms: _242  and  _244
REMARK  102  A    between atoms: _244  and  _245
REMARK  103  A    between atoms: _247  and  _249
REMARK  104  A    between atoms: _249  and  _250
REMARK  105  A    between atoms: _249  and  _252
REMARK  106  A    between atoms: _252  and  _253
REMARK  107  A    between atoms: _253  and  _254
REMARK  108  A    between atoms: _254  and  _255
REMARK  109  A    between atoms: _264  and  _266
REMARK  110  A    between atoms: _266  and  _267
REMARK  111  A    between atoms: _266  and  _269
REMARK  112  A    between atoms: _269  and  _270
REMARK  113  A    between atoms: _275  and  _277
REMARK  114  A    between atoms: _277  and  _278
REMARK  115  A    between atoms: _277  and  _280
REMARK  116  A    between atoms: _280  and  _281
REMARK  117  A    between atoms: _281  and  _282
REMARK  118  A    between atoms: _282  and  _283
REMARK  119  A    between atoms: _292  and  _294
REMARK  120  A    between atoms: _294  and  _295
REMARK  121  A    between atoms: _294  and  _297
REMARK  122  A    between atoms: _297  and  _298
REMARK  123  A    between atoms: _301  and  _303
REMARK  124  A    between atoms: _303  and  _304
REMARK  125  A    between atoms: _303  and  _306
REMARK  126  A    between atoms: _306  and  _307
REMARK  127  A    between atoms: _310  and  _312
REMARK  128  A    between atoms: _312  and  _313
REMARK  129  A    between atoms: _312  and  _315
REMARK  130  A    between atoms: _315  and  _316
REMARK  131  A    between atoms: _319  and  _321
REMARK  132  A    between atoms: _321  and  _322
REMARK  133  A    between atoms: _321  and  _324
REMARK  134  A    between atoms: _324  and  _325
REMARK  135  A    between atoms: _328  and  _330
REMARK  136  A    between atoms: _330  and  _331
REMARK  137  A    between atoms: _333  and  _335
REMARK  138  A    between atoms: _335  and  _336
REMARK  139  A    between atoms: _339  and  _341
REMARK  140  A    between atoms: _341  and  _342
REMARK  141  A    between atoms: _341  and  _344
REMARK  142  A    between atoms: _344  and  _345
REMARK  143  A    between atoms: _348  and  _350
REMARK  144  A    between atoms: _350  and  _351
REMARK  145  A    between atoms: _350  and  _353
REMARK  146  A    between atoms: _353  and  _354
REMARK  147  A    between atoms: _357  and  _359
REMARK  148  A    between atoms: _359  and  _360
REMARK  149  A    between atoms: _359  and  _362
REMARK  150  A    between atoms: _362  and  _363
REMARK  151  A    between atoms: _366  and  _368
REMARK  152  A    between atoms: _368  and  _369
REMARK  153  A    between atoms: _368  and  _371
REMARK  154  A    between atoms: _374  and  _376
REMARK  155  A    between atoms: _376  and  _377
REMARK  156  A    between atoms: _376  and  _379
REMARK  157  A    between atoms: _379  and  _380
REMARK  158  A    between atoms: _380  and  _381
REMARK  159  A    between atoms: _381  and  _382
REMARK  160  A    between atoms: _382  and  _383
REMARK  161  A    between atoms: _387  and  _389
REMARK  162  A    between atoms: _389  and  _390
REMARK  163  A    between atoms: _389  and  _392
REMARK  164  A    between atoms: _392  and  _393
REMARK  165  A    between atoms: _393  and  _394
REMARK  166  A    between atoms: _396  and  _398
REMARK  167  A    between atoms: _398  and  _399
REMARK  168  A    between atoms: _398  and  _401
REMARK  169  A    between atoms: _401  and  _402
REMARK  170  A    between atoms: _405  and  _407
REMARK  171  A    between atoms: _407  and  _408
REMARK  172  A    between atoms: _410  and  _412
REMARK  173  A    between atoms: _412  and  _413
REMARK  174  A    between atoms: _415  and  _417
REMARK  175  A    between atoms: _417  and  _418
REMARK  176  A    between atoms: _417  and  _420
REMARK  177  A    between atoms: _423  and  _425
REMARK  178  A    between atoms: _425  and  _426
REMARK  179  A    between atoms: _428  and  _430
REMARK  180  A    between atoms: _430  and  _431
REMARK  181  A    between atoms: _433  and  _435
REMARK  182  A    between atoms: _435  and  _436
REMARK  183  A    between atoms: _435  and  _438
REMARK  184  A    between atoms: _438  and  _439
REMARK  185  A    between atoms: _445  and  _447
REMARK  186  A    between atoms: _447  and  _448
REMARK  187  A    between atoms: _447  and  _450
REMARK  188  A    between atoms: _450  and  _451
REMARK  189  A    between atoms: _454  and  _456
REMARK  190  A    between atoms: _456  and  _457
REMARK  191  A    between atoms: _456  and  _459
REMARK  192  A    between atoms: _459  and  _460
REMARK  193  A    between atoms: _463  and  _465
REMARK  194  A    between atoms: _465  and  _466
REMARK  195  A    between atoms: _465  and  _468
REMARK  196  A    between atoms: _468  and  _469
REMARK  197  A    between atoms: _473  and  _474
REMARK  198  A    between atoms: _479  and  _481
REMARK  199  A    between atoms: _481  and  _482
REMARK  200  A    between atoms: _481  and  _484
REMARK  201  A    between atoms: _487  and  _489
REMARK  202  A    between atoms: _489  and  _490
REMARK  203  A    between atoms: _489  and  _492
REMARK  204  A    between atoms: _492  and  _493
REMARK  205  A    between atoms: _498  and  _500
REMARK  206  A    between atoms: _500  and  _501
REMARK  207  A    between atoms: _500  and  _503
REMARK  208  A    between atoms: _503  and  _504
REMARK  209  A    between atoms: _507  and  _509
REMARK  210  A    between atoms: _509  and  _510
REMARK  211  A    between atoms: _509  and  _512
REMARK  212  A    between atoms: _512  and  _513
REMARK  213  A    between atoms: _516  and  _518
REMARK  214  A    between atoms: _518  and  _519
REMARK  215  A    between atoms: _521  and  _523
REMARK  216  A    between atoms: _523  and  _524
REMARK  217  A    between atoms: _523  and  _526
REMARK  218  A    between atoms: _526  and  _527
REMARK  219  A    between atoms: _527  and  _528
REMARK  220  A    between atoms: _528  and  _529
REMARK  221  A    between atoms: _538  and  _540
REMARK  222  A    between atoms: _540  and  _541
REMARK  223  A    between atoms: _540  and  _543
REMARK  224  A    between atoms: _543  and  _544
REMARK                            x       y       z     vdW  Elec       q    Type
REMARK                         _______ _______ _______ _____ _____    ______ ____
ROOT
ATOM      1  NE  ARG A   1      23.072  30.614  22.622  0.00  0.00    -0.265 N 
ATOM      2  CZ  ARG A   1      24.278  30.078  22.467  0.00  0.00    +0.342 C 
ATOM      3  NH2 ARG A   1      25.050  29.818  23.514  0.00  0.00    -0.292 N 
ATOM      4 HH21 ARG A   1      24.714  30.034  24.474  0.00  0.00    +0.255 HD
ATOM      5 HH22 ARG A   1      25.991  29.398  23.375  0.00  0.00    +0.255 HD
ATOM      6  NH1 ARG A   1      24.727  29.810  21.250  0.00  0.00    -0.292 N 
ATOM      7 HH11 ARG A   1      25.670  29.390  21.124  0.00  0.00    +0.255 HD
ATOM      8 HH12 ARG A   1      24.136  30.019  20.420  0.00  0.00    +0.255 HD
ATOM      9  HE  ARG A   1      22.530  30.801  21.754  0.00  0.00    +0.259 HD
ENDROOT
BRANCH   1  10
ATOM     10  CD  ARG A   1      22.432  30.966  23.878  0.00  0.00    +0.174 C 
BRANCH  10  11
ATOM     11  CG  ARG A   1      21.324  31.974  23.656  0.00  0.00    +0.045 C 
BRANCH  11  12
ATOM     12  CB  ARG A   1      20.423  32.085  24.880  0.00  0.00    +0.029 C 
BRANCH  12  13
ATOM     13  CA  ARG A   1      19.445  33.252  24.737  0.00  0.00    +0.133 C 
BRANCH  13  14
ATOM     14  N   ARG A   1      20.160  34.530  24.621  0.00  0.00    -0.239 NA
ATOM     15  H   ARG A   1      21.199  34.547  24.667  0.00  0.00    +0.142 HD
ENDBRANCH  13  14
BRANCH  13  16
ATOM     16  C   ARG A   1      18.504  33.293  25.929  0.00  0.00    +0.224 C 
ATOM     17  O   ARG A   1      18.964  33.777  26.971  0.00  0.00    -0.287 OA
ENDBRANCH  13  16
ENDBRANCH  12  13
ENDBRANCH  11  12
ENDBRANCH  10  11
ENDBRANCH   1  10
TORSDOF 6
REMARK  Name = ../refined-set-2016/2qd6/2qd6_pocket.pdb
REMARK  224 active torsions:
REMARK  status: ('A' for Active; 'I' for Inactive)
REMARK    1  A    between atoms: _1  and  _3
REMARK    2  A    between atoms: _3  and  _4
REMARK    3  A    between atoms: _3  and  _6
REMARK    4  A    between atoms: _6  and  _7
REMARK    5  A    between atoms: _7  and  _8
REMARK    6  A    between atoms: _8  and  _9
REMARK    7  A    between atoms: _18  and  _20
REMARK    8  A    between atoms: _20  and  _21
REMARK    9  A    between atoms: _20  and  _23
REMARK   10  A    between atoms: _23  and  _24
REMARK   11  A    between atoms: _27  and  _29
REMARK   12  A    between atoms: _29  and  _30
REMARK   13  A    between atoms: _29  and  _32
REMARK   14  A    between atoms: _32  and  _33
REMARK   15  A    between atoms: _36  and  _38
REMARK   16  A    between atoms: _38  and  _39
REMARK   17  A    between atoms: _38  and  _41
REMARK   18  A    between atoms: _41  and  _42
REMARK   19  A    between atoms: _45  and  _47
REMARK   20  A    between atoms: _47  and  _48
REMARK   21  A    between atoms: _47  and  _50
REMARK   22  A    between atoms: _50  and  _51
REMARK   23  A    between atoms: _54  and  _56
REMARK   24  A    between atoms: _56  and  _57
REMARK   25  A    between atoms: _59  and  _61
REMARK   26  A    between atoms: _61  and  _62
REMARK   27  A    between atoms: _65  and  _67
REMARK   28  A    between atoms: _67  and  _68
REMARK   29  A    between atoms: _67  and  _70
REMARK   30  A    between atoms: _70  and  _71
REMARK   31  A    between atoms: _74  and  _76
REMARK   32  A    between atoms: _76  and  _77
REMARK   33  A    between atoms: _76  and  _79
REMARK   34  A    between atoms: _79  and  _80
REMARK   35  A    between atoms: _83  and  _85
REMARK   36  A    between atoms: _85  and  _86
REMARK   37  A    between atoms: _85  and  _88
REMARK   38  A    between atoms: _88  and  _89
REMARK   39  A    between atoms: _92  and  _94
REMARK   40  A    between atoms: _94  and  _95
REMARK   41  A    between atoms: _94  and  _97
REMARK   42  A    between atoms: _100  and  _102
REMARK   43  A    between atoms: _102  and  _103
REMARK   44  A    between atoms: _102  and  _105
REMARK   45  A    between atoms: _105  and  _106
REMARK   46  A    between atoms: _106  and  _107
REMARK   47  A    between atoms: _107  and  _108
REMARK   48  A    between atoms: _108  and  _109
REMARK   49  A    between atoms: _113  and  _115
REMARK   50  A    between atoms: _115  and  _116
REMARK   51  A    between atoms: _115  and  _118
REMARK   52  A    between atoms: _118  and  _119
REMARK   53  A    between atoms: _119  and  _120
REMARK   54  A    between atoms: _122  and  _124
REMARK   55  A    between atoms: _124  and  _125
REMARK   56  A    between atoms: _124  and  _127
REMARK   57  A    between atoms: _127  and  _128
REMARK   58  A    between atoms: _131  and  _133
REMARK   59  A    between atoms: _133  and  _134
REMARK   60  A    between atoms: _136  and  _138
REMARK   61  A    between atoms: _138  and  _139
REMARK   62  A    between atoms: _141  and  _143
REMARK   63  A    between atoms: _143  and  _144
REMARK   64  A    between atoms: _143  and  _146
REMARK   65  A    between atoms: _149  and  _151
REMARK   66  A    between atoms: _151  and  _152
REMARK   67  A    between atoms: _154  and  _156
REMARK   68  A    between atoms: _156  and  _157
REMARK   69  A    between atoms: _159  and  _161
REMARK   70  A    between atoms: _161  and  _162
REMARK   71  A    between atoms: _161  and  _164
REMARK   72  A    between atoms: _164  and  _165
REMARK   73  A    between atoms: _171  and  _173
REMARK   74  A    between atoms: _173  and  _174
REMARK   75  A    between atoms: _173  and  _176
REMARK   76  A    between atoms: _176  and  _177
REMARK   77  A    between atoms: _180  and  _182
REMARK   78  A    between atoms: _182  and  _183
REMARK   79  A    between atoms: _182  and  _185
REMARK   80  A    between atoms: _185  and  _186
REMARK   81  A    between atoms: _189  and  _191
REMARK   82  A    between atoms: _191  and  _192
REMARK   83  A    between atoms: _191  and  _194
REMARK   84  A    between atoms: _194  and  _195
REMARK   85  A    between atoms: _199  and  _200
REMARK   86  A    between atoms: _205  and  _207
REMARK   87  A    between atoms: _207  and  _208
REMARK   88  A    between atoms: _207  and  _210
REMARK   89  A    between atoms: _213  and  _215
REMARK   90  A    between atoms: _215  and  _216
REMARK   91  A    between atoms: _215  and  _218
REMARK   92  A    between atoms: _218  and  _219
REMARK   93  A    between atoms: _224  and  _226
REMARK   94  A    between atoms: _226  and  _227
REMARK   95  A    between atoms: _226  and  _229
REMARK   96  A    between atoms: _229  and  _230
REMARK   97  A    between atoms: _233  and  _235
REMARK   98  A    between atoms: _235  and  _236
REMARK   99  A    between atoms: _235  and  _238
REMARK  100  A    between atoms: _238  and  _239
REMARK  101  A    between atoms: _242  and  _244
REMARK  102  A    between atoms: _244  and  _245
REMARK  103  A    between atoms: _247  and  _249
REMARK  104  A    between atoms: _249  and  _250
REMARK  105  A    between atoms: _249  and  _252
REMARK  106  A    between atoms: _252  and  _253
REMARK  107  A    between atoms: _253  and  _254
REMARK  108  A    between atoms: _254  and  _255
REMARK  109  A    between atoms: _264  and  _266
REMARK  110  A    between atoms: _266  and  _267
REMARK  111  A    between atoms: _266  and  _269
REMARK  112  A    between atoms: _269  and  _270
REMARK  113  A    between atoms: _275  and  _277
REMARK  114  A    between atoms: _277  and  _278
REMARK  115  A    between atoms: _277  and  _280
REMARK  116  A    between atoms: _280  and  _281
REMARK  117  A    between atoms: _281  and  _282
REMARK  118  A    between atoms: _282  and  _283
REMARK  119  A    between atoms: _292  and  _294
REMARK  120  A    between atoms: _294  and  _295
REMARK  121  A    between atoms: _294  and  _297
REMARK  122  A    between atoms: _297  and  _298
REMARK  123  A    between atoms: _301  and  _303
REMARK  124  A    between atoms: _303  and  _304
REMARK  125  A    between atoms: _303  and  _306
REMARK  126  A    between atoms: _306  and  _307
REMARK  127  A    between atoms: _310  and  _312
REMARK  128  A    between atoms: _312  and  _313
REMARK  129  A    between atoms: _312  and  _315
REMARK  130  A    between atoms: _315  and  _316
REMARK  131  A    between atoms: _319  and  _321
REMARK  132  A    between atoms: _321  and  _322
REMARK  133  A    between atoms: _321  and  _324
REMARK  134  A    between atoms: _324  and  _325
REMARK  135  A    between atoms: _328  and  _330
REMARK  136  A    between atoms: _330  and  _331
REMARK  137  A    between atoms: _333  and  _335
REMARK  138  A    between atoms: _335  and  _336
REMARK  139  A    between atoms: _339  and  _341
REMARK  140  A    between atoms: _341  and  _342
REMARK  141  A    between atoms: _341  and  _344
REMARK  142  A    between atoms: _344  and  _345
REMARK  143  A    between atoms: _348  and  _350
REMARK  144  A    between atoms: _350  and  _351
REMARK  145  A    between atoms: _350  and  _353
REMARK  146  A    between atoms: _353  and  _354
REMARK  147  A    between atoms: _357  and  _359
REMARK  148  A    between atoms: _359  and  _360
REMARK  149  A    between atoms: _359  and  _362
REMARK  150  A    between atoms: _362  and  _363
REMARK  151  A    between atoms: _366  and  _368
REMARK  152  A    between atoms: _368  and  _369
REMARK  153  A    between atoms: _368  and  _371
REMARK  154  A    between atoms: _374  and  _376
REMARK  155  A    between atoms: _376  and  _377
REMARK  156  A    between atoms: _376  and  _379
REMARK  157  A    between atoms: _379  and  _380
REMARK  158  A    between atoms: _380  and  _381
REMARK  159  A    between atoms: _381  and  _382
REMARK  160  A    between atoms: _382  and  _383
REMARK  161  A    between atoms: _387  and  _389
REMARK  162  A    between atoms: _389  and  _390
REMARK  163  A    between atoms: _389  and  _392
REMARK  164  A    between atoms: _392  and  _393
REMARK  165  A    between atoms: _393  and  _394
REMARK  166  A    between atoms: _396  and  _398
REMARK  167  A    between atoms: _398  and  _399
REMARK  168  A    between atoms: _398  and  _401
REMARK  169  A    between atoms: _401  and  _402
REMARK  170  A    between atoms: _405  and  _407
REMARK  171  A    between atoms: _407  and  _408
REMARK  172  A    between atoms: _410  and  _412
REMARK  173  A    between atoms: _412  and  _413
REMARK  174  A    between atoms: _415  and  _417
REMARK  175  A    between atoms: _417  and  _418
REMARK  176  A    between atoms: _417  and  _420
REMARK  177  A    between atoms: _423  and  _425
REMARK  178  A    between atoms: _425  and  _426
REMARK  179  A    between atoms: _428  and  _430
REMARK  180  A    between atoms: _430  and  _431
REMARK  181  A    between atoms: _433  and  _435
REMARK  182  A    between atoms: _435  and  _436
REMARK  183  A    between atoms: _435  and  _438
REMARK  184  A    between atoms: _438  and  _439
REMARK  185  A    between atoms: _445  and  _447
REMARK  186  A    between atoms: _447  and  _448
REMARK  187  A    between atoms: _447  and  _450
REMARK  188  A    between atoms: _450  and  _451
REMARK  189  A    between atoms: _454  and  _456
REMARK  190  A    between atoms: _456  and  _457
REMARK  191  A    between atoms: _456  and  _459
REMARK  192  A    between atoms: _459  and  _460
REMARK  193  A    between atoms: _463  and  _465
REMARK  194  A    between atoms: _465  and  _466
REMARK  195  A    between atoms: _465  and  _468
REMARK  196  A    between atoms: _468  and  _469
REMARK  197  A    between atoms: _473  and  _474
REMARK  198  A    between atoms: _479  and  _481
REMARK  199  A    between atoms: _481  and  _482
REMARK  200  A    between atoms: _481  and  _484
REMARK  201  A    between atoms: _487  and  _489
REMARK  202  A    between atoms: _489  and  _490
REMARK  203  A    between atoms: _489  and  _492
REMARK  204  A    between atoms: _492  and  _493
REMARK  205  A    between atoms: _498  and  _500
REMARK  206  A    between atoms: _500  and  _501
REMARK  207  A    between atoms: _500  and  _503
REMARK  208  A    between atoms: _503  and  _504
REMARK  209  A    between atoms: _507  and  _509
REMARK  210  A    between atoms: _509  and  _510
REMARK  211  A    between atoms: _509  and  _512
REMARK  212  A    between atoms: _512  and  _513
REMARK  213  A    between atoms: _516  and  _518
REMARK  214  A    between atoms: _518  and  _519
REMARK  215  A    between atoms: _521  and  _523
REMARK  216  A    between atoms: _523  and  _524
REMARK  217  A    between atoms: _523  and  _526
REMARK  218  A    between atoms: _526  and  _527
REMARK  219  A    between atoms: _527  and  _528
REMARK  220  A    between atoms: _528  and  _529
REMARK  221  A    between atoms: _538  and  _540
REMARK  222  A    between atoms: _540  and  _541
REMARK  223  A    between atoms: _540  and  _543
REMARK  224  A    between atoms: _543  and  _544
REMARK                            x       y       z     vdW  Elec       q    Type
REMARK                         _______ _______ _______ _____ _____    ______ ____
ROOT
ATOM      1  C   GLY A   5      10.797  24.099  18.734  0.00  0.00    +0.243 C 
ATOM      2  N   ALA A   6      10.739  23.772  20.015  0.00  0.00    -0.297 N 
ATOM      3  H   ALA A   6      10.635  24.534  20.715  0.00  0.00    +0.150 HD
ATOM      4  O   GLY A   5      10.946  23.246  17.845  0.00  0.00    -0.273 OA
ENDROOT
BRANCH   2   5
ATOM      5  CA  ALA A   6      10.813  22.398  20.494  0.00  0.00    +0.149 C 
ATOM      6  CB  ALA A   6      11.760  22.316  21.683  0.00  0.00    +0.031 C 
BRANCH   5   7
ATOM      7  C   ALA A   6       9.429  21.901  20.903  0.00  0.00    +0.241 C 
ATOM      8  O   ALA A   6       8.795  22.518  21.753  0.00  0.00    -0.273 OA
ATOM      9  N   ASP A   7       9.001  20.802  20.307  0.00  0.00    -0.297 N 
ATOM     10  H   ASP A   7       9.542  20.362  19.536  0.00  0.00    +0.150 HD
BRANCH   9  11
ATOM     11  CA  ASP A   7       7.749  20.231  20.767  0.00  0.00    +0.160 C 
BRANCH  11  12
ATOM     12  C   ASP A   7       7.856  19.717  22.194  0.00  0.00    +0.241 C 
ATOM     13  O   ASP A   7       6.906  19.783  22.968  0.00  0.00    -0.273 OA
ATOM     14  N   ASP A   8       8.996  19.142  22.504  0.00  0.00    -0.297 N 
ATOM     15  H   ASP A   8       9.775  19.260  21.825  0.00  0.00    +0.150 HD
BRANCH  14  16
ATOM     16  CA  ASP A   8       9.290  18.347  23.712  0.00  0.00    +0.160 C 
BRANCH  16  17
ATOM     17  C   ASP A   8      10.437  18.965  24.498  0.00  0.00    +0.241 C 
ATOM     18  N   THR A   9      10.520  18.640  25.748  0.00  0.00    -0.295 N 
ATOM     19  H   THR A   9       9.759  18.045  26.133  0.00  0.00    +0.150 HD
ATOM     20  O   ASP A   8      11.246  19.720  23.946  0.00  0.00    -0.273 OA
BRANCH  18  21
ATOM     21  CA  THR A   9      11.580  19.031  26.664  0.00  0.00    +0.176 C 
BRANCH  21  22
ATOM     22  C   THR A   9      12.651  17.978  26.689  0.00  0.00    +0.243 C 
ATOM     23  O   THR A   9      12.330  16.761  26.893  0.00  0.00    -0.273 OA
ATOM     24  N   VAL A  10      13.874  18.358  26.476  0.00  0.00    -0.298 N 
ATOM     25  H   VAL A  10      14.060  19.375  26.366  0.00  0.00    +0.150 HD
BRANCH  24  26
ATOM     26  CA  VAL A  10      15.000  17.439  26.383  0.00  0.00    +0.137 C 
BRANCH  26  27
ATOM     27  CB  VAL A  10      15.555  17.251  24.934  0.00  0.00    +0.026 C 
ATOM     28  CG2 VAL A  10      16.508  16.025  24.959  0.00  0.00    +0.002 C 
ATOM     29  CG1 VAL A  10      14.476  17.131  23.900  0.00  0.00    +0.002 C 
ENDBRANCH  26  27
BRANCH  26  30
ATOM     30  C   VAL A  10      16.140  17.928  27.272  0.00  0.00    +0.227 C 
ATOM     31  O   VAL A  10      16.576  19.057  27.140  0.00  0.00    -0.286 OA
ENDBRANCH  26  30
ENDBRANCH  24  26
ENDBRANCH  21  22
BRANCH  21  32
ATOM     32  CB  THR A   9      10.933  19.219  28.044  0.00  0.00    +0.137 C 
ATOM     33  CG2 THR A   9      11.985  19.465  29.123  0.00  0.00    +0.034 C 
BRANCH  32  34
ATOM     34  OG1 THR A   9      10.036  20.361  27.953  0.00  0.00    -0.382 OA
ATOM     35  HG1 THR A   9       9.345  20.182  27.267  0.00  0.00    +0.210 HD
ENDBRANCH  32  34
ENDBRANCH  21  32
ENDBRANCH  18  21
ENDBRANCH  16  17
BRANCH  16  36
ATOM     36  CB  ASP A   8       9.740  16.941  23.336  0.00  0.00    +0.143 C 
BRANCH  36  37
ATOM     37  CG  ASP A   8       8.960  16.289  22.214  0.00  0.00    +0.367 C 
ATOM     38  OD2 ASP A   8       7.717  16.237  22.328  0.00  0.00    -0.246 OA
ATOM     39  OD1 ASP A   8       9.579  15.815  21.226  0.00  0.00    -0.246 OA
ENDBRANCH  36  37
ENDBRANCH  16  36
ENDBRANCH  14  16
ENDBRANCH  11  12
BRANCH  11  40
ATOM     40  CB  ASP A   7       7.322  19.070  19.853  0.00  0.00    +0.143 C 
BRANCH  40  41
ATOM     41  CG  ASP A   7       7.067  19.354  18.392  0.00  0.00    +0.367 C 
ATOM     42  OD2 ASP A   7       6.846  20.535  18.012  0.00  0.00    -0.246 OA
ATOM     43  OD1 ASP A   7       7.071  18.395  17.590  0.00  0.00    -0.246 OA
ENDBRANCH  40  41
ENDBRANCH  11  40
ENDBRANCH   9  11
ENDBRANCH   5   7
ENDBRANCH   2   5
BRANCH   1  44
ATOM     44  CA  GLY A   5      10.708  25.560  18.359  0.00  0.00    +0.176 C 
BRANCH  44  47
ATOM     45  C   THR A   4       9.354  26.711  20.008  0.00  0.00    +0.243 C 
ATOM     46  O   THR A   4       8.286  26.262  19.571  0.00  0.00    -0.273 OA
ATOM     47  N   GLY A   5      10.535  26.461  19.495  0.00  0.00    -0.295 N 
ATOM     48  H   GLY A   5      11.372  26.918  19.909  0.00  0.00    +0.150 HD
BRANCH  45  49
ATOM     49  CA  THR A   4       9.300  27.576  21.270  0.00  0.00    +0.176 C 
BRANCH  49  52
ATOM     50  C   ASP A   3      11.137  26.668  22.534  0.00  0.00    +0.241 C 
ATOM     51  O   ASP A   3      10.593  25.546  22.519  0.00  0.00    -0.273 OA
ATOM     52  N   THR A   4      10.576  27.704  21.921  0.00  0.00    -0.295 N 
ATOM     53  H   THR A   4      11.066  28.621  21.912  0.00  0.00    +0.150 HD
BRANCH  50  54
ATOM     54  CA  ASP A   3      12.476  26.923  23.192  0.00  0.00    +0.160 C 
BRANCH  54  56
ATOM     55  C   LEU A   2      12.955  28.251  25.170  0.00  0.00    +0.241 C 
ATOM     56  N   ASP A   3      12.414  27.180  24.628  0.00  0.00    -0.297 N 
ATOM     57  H   ASP A   3      11.927  26.496  25.242  0.00  0.00    +0.150 HD
ATOM     58  O   LEU A   2      13.397  29.185  24.517  0.00  0.00    -0.273 OA
BRANCH  55  59
ATOM     59  CA  LEU A   2      13.055  28.273  26.680  0.00  0.00    +0.149 C 
BRANCH  59  61
ATOM     60  C   LEU A   1      15.193  27.156  26.954  0.00  0.00    +0.238 C 
ATOM     61  N   LEU A   2      14.465  28.261  27.034  0.00  0.00    -0.297 N 
ATOM     62  H   LEU A   2      14.914  29.141  27.358  0.00  0.00    +0.150 HD
ATOM     63  O   LEU A   1      14.682  26.046  26.680  0.00  0.00    -0.274 OA
BRANCH  60  64
ATOM     64  CA  LEU A   1      16.697  27.258  27.173  0.00  0.00    +0.145 C 
BRANCH  64  65
ATOM     65  N   LEU A   1      17.128  26.326  28.194  0.00  0.00    -0.238 NA
ATOM     66  H   LEU A   1      17.324  25.348  27.899  0.00  0.00    +0.142 HD
ENDBRANCH  64  65
BRANCH  64  67
ATOM     67  CB  LEU A   1      17.499  26.875  25.902  0.00  0.00    +0.026 C 
BRANCH  67  68
ATOM     68  CG  LEU A   1      17.394  27.682  24.665  0.00  0.00    +0.002 C 
ATOM     69  CD2 LEU A   1      17.987  29.043  24.959  0.00  0.00    +0.000 C 
ATOM     70  CD1 LEU A   1      18.096  26.975  23.518  0.00  0.00    +0.000 C 
ENDBRANCH  67  68
ENDBRANCH  64  67
ENDBRANCH  60  64
ENDBRANCH  59  61
BRANCH  59  71
ATOM     71  CB  LEU A   2      12.340  29.483  27.267  0.00  0.00    +0.029 C 
BRANCH  71  72
ATOM     72  CG  LEU A   2      12.426  29.615  28.793  0.00  0.00    +0.002 C 
ATOM     73  CD2 LEU A   2      11.884  28.407  29.506  0.00  0.00    +0.000 C 
ATOM     74  CD1 LEU A   2      11.659  30.877  29.241  0.00  0.00    +0.000 C 
ENDBRANCH  71  72
ENDBRANCH  59  71
ENDBRANCH  55  59
ENDBRANCH  54  56
BRANCH  54  75
ATOM     75  CB  ASP A   3      13.362  25.702  23.005  0.00  0.00    +0.143 C 
BRANCH  75  76
ATOM     76  CG  ASP A   3      13.749  25.451  21.590  0.00  0.00    +0.367 C 
ATOM     77  OD2 ASP A   3      14.626  24.567  21.404  0.00  0.00    -0.246 OA
ATOM     78  OD1 ASP A   3      13.202  26.192  20.710  0.00  0.00    -0.246 OA
ENDBRANCH  75  76
ENDBRANCH  54  75
ENDBRANCH  50  54
ENDBRANCH  49  52
BRANCH  49  79
ATOM     79  CB  THR A   4       8.734  28.954  20.884  0.00  0.00    +0.137 C 
ATOM     80  CG2 THR A   4       8.494  29.811  22.132  0.00  0.00    +0.034 C 
BRANCH  79  81
ATOM     81  OG1 THR A   4       9.624  29.651  20.012  0.00  0.00    -0.382 OA
ATOM     82  HG1 THR A   4       9.758  29.121  19.187  0.00  0.00    +0.210 HD
ENDBRANCH  79  81
ENDBRANCH  49  79
ENDBRANCH  45  49
ENDBRANCH  44  47
ENDBRANCH   1  44
TORSDOF 35
REMARK  Name = ../refined-set-2016/2qd6/2qd6_pocket.pdb
REMARK  224 active torsions:
REMARK  status: ('A' for Active; 'I' for Inactive)
REMARK    1  A    between atoms: _1  and  _3
REMARK    2  A    between atoms: _3  and  _4
REMARK    3  A    between atoms: _3  and  _6
REMARK    4  A    between atoms: _6  and  _7
REMARK    5  A    between atoms: _7  and  _8
REMARK    6  A    between atoms: _8  and  _9
REMARK    7  A    between atoms: _18  and  _20
REMARK    8  A    between atoms: _20  and  _21
REMARK    9  A    between atoms: _20  and  _23
REMARK   10  A    between atoms: _23  and  _24
REMARK   11  A    between atoms: _27  and  _29
REMARK   12  A    between atoms: _29  and  _30
REMARK   13  A    between atoms: _29  and  _32
REMARK   14  A    between atoms: _32  and  _33
REMARK   15  A    between atoms: _36  and  _38
REMARK   16  A    between atoms: _38  and  _39
REMARK   17  A    between atoms: _38  and  _41
REMARK   18  A    between atoms: _41  and  _42
REMARK   19  A    between atoms: _45  and  _47
REMARK   20  A    between atoms: _47  and  _48
REMARK   21  A    between atoms: _47  and  _50
REMARK   22  A    between atoms: _50  and  _51
REMARK   23  A    between atoms: _54  and  _56
REMARK   24  A    between atoms: _56  and  _57
REMARK   25  A    between atoms: _59  and  _61
REMARK   26  A    between atoms: _61  and  _62
REMARK   27  A    between atoms: _65  and  _67
REMARK   28  A    between atoms: _67  and  _68
REMARK   29  A    between atoms: _67  and  _70
REMARK   30  A    between atoms: _70  and  _71
REMARK   31  A    between atoms: _74  and  _76
REMARK   32  A    between atoms: _76  and  _77
REMARK   33  A    between atoms: _76  and  _79
REMARK   34  A    between atoms: _79  and  _80
REMARK   35  A    between atoms: _83  and  _85
REMARK   36  A    between atoms: _85  and  _86
REMARK   37  A    between atoms: _85  and  _88
REMARK   38  A    between atoms: _88  and  _89
REMARK   39  A    between atoms: _92  and  _94
REMARK   40  A    between atoms: _94  and  _95
REMARK   41  A    between atoms: _94  and  _97
REMARK   42  A    between atoms: _100  and  _102
REMARK   43  A    between atoms: _102  and  _103
REMARK   44  A    between atoms: _102  and  _105
REMARK   45  A    between atoms: _105  and  _106
REMARK   46  A    between atoms: _106  and  _107
REMARK   47  A    between atoms: _107  and  _108
REMARK   48  A    between atoms: _108  and  _109
REMARK   49  A    between atoms: _113  and  _115
REMARK   50  A    between atoms: _115  and  _116
REMARK   51  A    between atoms: _115  and  _118
REMARK   52  A    between atoms: _118  and  _119
REMARK   53  A    between atoms: _119  and  _120
REMARK   54  A    between atoms: _122  and  _124
REMARK   55  A    between atoms: _124  and  _125
REMARK   56  A    between atoms: _124  and  _127
REMARK   57  A    between atoms: _127  and  _128
REMARK   58  A    between atoms: _131  and  _133
REMARK   59  A    between atoms: _133  and  _134
REMARK   60  A    between atoms: _136  and  _138
REMARK   61  A    between atoms: _138  and  _139
REMARK   62  A    between atoms: _141  and  _143
REMARK   63  A    between atoms: _143  and  _144
REMARK   64  A    between atoms: _143  and  _146
REMARK   65  A    between atoms: _149  and  _151
REMARK   66  A    between atoms: _151  and  _152
REMARK   67  A    between atoms: _154  and  _156
REMARK   68  A    between atoms: _156  and  _157
REMARK   69  A    between atoms: _159  and  _161
REMARK   70  A    between atoms: _161  and  _162
REMARK   71  A    between atoms: _161  and  _164
REMARK   72  A    between atoms: _164  and  _165
REMARK   73  A    between atoms: _171  and  _173
REMARK   74  A    between atoms: _173  and  _174
REMARK   75  A    between atoms: _173  and  _176
REMARK   76  A    between atoms: _176  and  _177
REMARK   77  A    between atoms: _180  and  _182
REMARK   78  A    between atoms: _182  and  _183
REMARK   79  A    between atoms: _182  and  _185
REMARK   80  A    between atoms: _185  and  _186
REMARK   81  A    between atoms: _189  and  _191
REMARK   82  A    between atoms: _191  and  _192
REMARK   83  A    between atoms: _191  and  _194
REMARK   84  A    between atoms: _194  and  _195
REMARK   85  A    between atoms: _199  and  _200
REMARK   86  A    between atoms: _205  and  _207
REMARK   87  A    between atoms: _207  and  _208
REMARK   88  A    between atoms: _207  and  _210
REMARK   89  A    between atoms: _213  and  _215
REMARK   90  A    between atoms: _215  and  _216
REMARK   91  A    between atoms: _215  and  _218
REMARK   92  A    between atoms: _218  and  _219
REMARK   93  A    between atoms: _224  and  _226
REMARK   94  A    between atoms: _226  and  _227
REMARK   95  A    between atoms: _226  and  _229
REMARK   96  A    between atoms: _229  and  _230
REMARK   97  A    between atoms: _233  and  _235
REMARK   98  A    between atoms: _235  and  _236
REMARK   99  A    between atoms: _235  and  _238
REMARK  100  A    between atoms: _238  and  _239
REMARK  101  A    between atoms: _242  and  _244
REMARK  102  A    between atoms: _244  and  _245
REMARK  103  A    between atoms: _247  and  _249
REMARK  104  A    between atoms: _249  and  _250
REMARK  105  A    between atoms: _249  and  _252
REMARK  106  A    between atoms: _252  and  _253
REMARK  107  A    between atoms: _253  and  _254
REMARK  108  A    between atoms: _254  and  _255
REMARK  109  A    between atoms: _264  and  _266
REMARK  110  A    between atoms: _266  and  _267
REMARK  111  A    between atoms: _266  and  _269
REMARK  112  A    between atoms: _269  and  _270
REMARK  113  A    between atoms: _275  and  _277
REMARK  114  A    between atoms: _277  and  _278
REMARK  115  A    between atoms: _277  and  _280
REMARK  116  A    between atoms: _280  and  _281
REMARK  117  A    between atoms: _281  and  _282
REMARK  118  A    between atoms: _282  and  _283
REMARK  119  A    between atoms: _292  and  _294
REMARK  120  A    between atoms: _294  and  _295
REMARK  121  A    between atoms: _294  and  _297
REMARK  122  A    between atoms: _297  and  _298
REMARK  123  A    between atoms: _301  and  _303
REMARK  124  A    between atoms: _303  and  _304
REMARK  125  A    between atoms: _303  and  _306
REMARK  126  A    between atoms: _306  and  _307
REMARK  127  A    between atoms: _310  and  _312
REMARK  128  A    between atoms: _312  and  _313
REMARK  129  A    between atoms: _312  and  _315
REMARK  130  A    between atoms: _315  and  _316
REMARK  131  A    between atoms: _319  and  _321
REMARK  132  A    between atoms: _321  and  _322
REMARK  133  A    between atoms: _321  and  _324
REMARK  134  A    between atoms: _324  and  _325
REMARK  135  A    between atoms: _328  and  _330
REMARK  136  A    between atoms: _330  and  _331
REMARK  137  A    between atoms: _333  and  _335
REMARK  138  A    between atoms: _335  and  _336
REMARK  139  A    between atoms: _339  and  _341
REMARK  140  A    between atoms: _341  and  _342
REMARK  141  A    between atoms: _341  and  _344
REMARK  142  A    between atoms: _344  and  _345
REMARK  143  A    between atoms: _348  and  _350
REMARK  144  A    between atoms: _350  and  _351
REMARK  145  A    between atoms: _350  and  _353
REMARK  146  A    between atoms: _353  and  _354
REMARK  147  A    between atoms: _357  and  _359
REMARK  148  A    between atoms: _359  and  _360
REMARK  149  A    between atoms: _359  and  _362
REMARK  150  A    between atoms: _362  and  _363
REMARK  151  A    between atoms: _366  and  _368
REMARK  152  A    between atoms: _368  and  _369
REMARK  153  A    between atoms: _368  and  _371
REMARK  154  A    between atoms: _374  and  _376
REMARK  155  A    between atoms: _376  and  _377
REMARK  156  A    between atoms: _376  and  _379
REMARK  157  A    between atoms: _379  and  _380
REMARK  158  A    between atoms: _380  and  _381
REMARK  159  A    between atoms: _381  and  _382
REMARK  160  A    between atoms: _382  and  _383
REMARK  161  A    between atoms: _387  and  _389
REMARK  162  A    between atoms: _389  and  _390
REMARK  163  A    between atoms: _389  and  _392
REMARK  164  A    between atoms: _392  and  _393
REMARK  165  A    between atoms: _393  and  _394
REMARK  166  A    between atoms: _396  and  _398
REMARK  167  A    between atoms: _398  and  _399
REMARK  168  A    between atoms: _398  and  _401
REMARK  169  A    between atoms: _401  and  _402
REMARK  170  A    between atoms: _405  and  _407
REMARK  171  A    between atoms: _407  and  _408
REMARK  172  A    between atoms: _410  and  _412
REMARK  173  A    between atoms: _412  and  _413
REMARK  174  A    between atoms: _415  and  _417
REMARK  175  A    between atoms: _417  and  _418
REMARK  176  A    between atoms: _417  and  _420
REMARK  177  A    between atoms: _423  and  _425
REMARK  178  A    between atoms: _425  and  _426
REMARK  179  A    between atoms: _428  and  _430
REMARK  180  A    between atoms: _430  and  _431
REMARK  181  A    between atoms: _433  and  _435
REMARK  182  A    between atoms: _435  and  _436
REMARK  183  A    between atoms: _435  and  _438
REMARK  184  A    between atoms: _438  and  _439
REMARK  185  A    between atoms: _445  and  _447
REMARK  186  A    between atoms: _447  and  _448
REMARK  187  A    between atoms: _447  and  _450
REMARK  188  A    between atoms: _450  and  _451
REMARK  189  A    between atoms: _454  and  _456
REMARK  190  A    between atoms: _456  and  _457
REMARK  191  A    between atoms: _456  and  _459
REMARK  192  A    between atoms: _459  and  _460
REMARK  193  A    between atoms: _463  and  _465
REMARK  194  A    between atoms: _465  and  _466
REMARK  195  A    between atoms: _465  and  _468
REMARK  196  A    between atoms: _468  and  _469
REMARK  197  A    between atoms: _473  and  _474
REMARK  198  A    between atoms: _479  and  _481
REMARK  199  A    between atoms: _481  and  _482
REMARK  200  A    between atoms: _481  and  _484
REMARK  201  A    between atoms: _487  and  _489
REMARK  202  A    between atoms: _489  and  _490
REMARK  203  A    between atoms: _489  and  _492
REMARK  204  A    between atoms: _492  and  _493
REMARK  205  A    between atoms: _498  and  _500
REMARK  206  A    between atoms: _500  and  _501
REMARK  207  A    between atoms: _500  and  _503
REMARK  208  A    between atoms: _503  and  _504
REMARK  209  A    between atoms: _507  and  _509
REMARK  210  A    between atoms: _509  and  _510
REMARK  211  A    between atoms: _509  and  _512
REMARK  212  A    between atoms: _512  and  _513
REMARK  213  A    between atoms: _516  and  _518
REMARK  214  A    between atoms: _518  and  _519
REMARK  215  A    between atoms: _521  and  _523
REMARK  216  A    between atoms: _523  and  _524
REMARK  217  A    between atoms: _523  and  _526
REMARK  218  A    between atoms: _526  and  _527
REMARK  219  A    between atoms: _527  and  _528
REMARK  220  A    between atoms: _528  and  _529
REMARK  221  A    between atoms: _538  and  _540
REMARK  222  A    between atoms: _540  and  _541
REMARK  223  A    between atoms: _540  and  _543
REMARK  224  A    between atoms: _543  and  _544
REMARK                            x       y       z     vdW  Elec       q    Type
REMARK                         _______ _______ _______ _____ _____    ______ ____
ROOT
ATOM      1  C   GLY A   5      17.119  18.533  13.669  0.00  0.00    +0.243 C 
ATOM      2  N   VAL A   6      17.803  19.659  13.781  0.00  0.00    -0.297 N 
ATOM      3  H   VAL A   6      17.806  20.176  14.683  0.00  0.00    +0.150 HD
ATOM      4  O   GLY A   5      17.108  17.808  12.664  0.00  0.00    -0.273 OA
ENDROOT
BRANCH   2   5
ATOM      5  CA  VAL A   6      18.554  20.179  12.641  0.00  0.00    +0.149 C 
BRANCH   5   6
ATOM      6  C   VAL A   6      19.486  19.137  12.045  0.00  0.00    +0.241 C 
ATOM      7  N   GLY A   7      20.121  18.272  12.830  0.00  0.00    -0.295 N 
ATOM      8  H   GLY A   7      19.846  18.160  13.827  0.00  0.00    +0.150 HD
ATOM      9  O   VAL A   6      19.655  19.057  10.826  0.00  0.00    -0.273 OA
BRANCH   7  10
ATOM     10  CA  GLY A   7      21.210  17.484  12.268  0.00  0.00    +0.176 C 
BRANCH  10  11
ATOM     11  C   GLY A   7      20.836  16.062  11.998  0.00  0.00    +0.243 C 
ATOM     12  N   GLY A   8      19.609  15.756  12.346  0.00  0.00    -0.295 N 
ATOM     13  H   GLY A   8      18.966  16.499  12.687  0.00  0.00    +0.150 HD
ATOM     14  O   GLY A   7      21.614  15.272  11.463  0.00  0.00    -0.273 OA
BRANCH  12  15
ATOM     15  CA  GLY A   8      19.146  14.383  12.256  0.00  0.00    +0.176 C 
BRANCH  15  16
ATOM     16  C   GLY A   8      18.469  13.962  13.550  0.00  0.00    +0.243 C 
ATOM     17  O   GLY A   8      18.132  14.806  14.384  0.00  0.00    -0.273 OA
ATOM     18  N   PHE A   9      18.254  12.668  13.635  0.00  0.00    -0.297 N 
ATOM     19  H   PHE A   9      18.631  12.048  12.890  0.00  0.00    +0.150 HD
BRANCH  18  20
ATOM     20  CA  PHE A   9      17.508  12.070  14.733  0.00  0.00    +0.153 C 
BRANCH  20  21
ATOM     21  C   PHE A   9      18.441  11.498  15.787  0.00  0.00    +0.241 C 
ATOM     22  N   ILE A  10      17.936  11.459  17.003  0.00  0.00    -0.298 N 
ATOM     23  H   ILE A  10      17.010  11.906  17.158  0.00  0.00    +0.150 HD
ATOM     24  O   PHE A   9      19.575  11.072  15.568  0.00  0.00    -0.273 OA
BRANCH  22  25
ATOM     25  CA  ILE A  10      18.584  10.836  18.138  0.00  0.00    +0.137 C 
BRANCH  25  26
ATOM     26  CB  ILE A  10      19.271  11.849  19.051  0.00  0.00    +0.026 C 
ATOM     27  CG2 ILE A  10      20.394  12.560  18.248  0.00  0.00    +0.002 C 
BRANCH  26  28
ATOM     28  CG1 ILE A  10      18.346  12.879  19.706  0.00  0.00    +0.002 C 
ATOM     29  CD1 ILE A  10      18.922  13.660  20.880  0.00  0.00    +0.000 C 
ENDBRANCH  26  28
ENDBRANCH  25  26
BRANCH  25  30
ATOM     30  C   ILE A  10      17.539  10.058  18.931  0.00  0.00    +0.227 C 
ATOM     31  O   ILE A  10      16.360  10.392  18.960  0.00  0.00    -0.286 OA
ENDBRANCH  25  30
ENDBRANCH  22  25
ENDBRANCH  20  21
BRANCH  20  32
ATOM     32  CB  PHE A   9      16.579  10.988  14.164  0.00  0.00    +0.055 C 
BRANCH  32  33
ATOM     33  CG  PHE A   9      15.336  11.526  13.492  0.00  0.00    -0.020 A 
ATOM     34  CD2 PHE A   9      14.134  11.604  14.168  0.00  0.00    -0.004 A 
ATOM     35  CE2 PHE A   9      12.969  12.094  13.599  0.00  0.00    -0.000 A 
ATOM     36  CZ  PHE A   9      12.968  12.530  12.286  0.00  0.00    -0.000 A 
ATOM     37  CE1 PHE A   9      14.164  12.436  11.609  0.00  0.00    -0.000 A 
ATOM     38  CD1 PHE A   9      15.329  11.960  12.182  0.00  0.00    -0.004 A 
ENDBRANCH  32  33
ENDBRANCH  20  32
ENDBRANCH  18  20
ENDBRANCH  15  16
ENDBRANCH  12  15
ENDBRANCH  10  11
ENDBRANCH   7  10
ENDBRANCH   5   6
BRANCH   5  39
ATOM     39  CB  VAL A   6      19.256  21.507  13.022  0.00  0.00    +0.027 C 
ATOM     40  CG2 VAL A   6      20.763  21.573  12.979  0.00  0.00    +0.002 C 
ATOM     41  CG1 VAL A   6      18.722  22.532  12.024  0.00  0.00    +0.002 C 
ENDBRANCH   5  39
ENDBRANCH   2   5
BRANCH   1  42
ATOM     42  CA  GLY A   5      16.295  18.208  14.894  0.00  0.00    +0.176 C 
BRANCH  42  45
ATOM     43  C   GLY A   4      14.770  16.377  15.074  0.00  0.00    +0.243 C 
ATOM     44  O   GLY A   4      13.883  17.214  15.279  0.00  0.00    -0.273 OA
ATOM     45  N   GLY A   5      16.005  16.803  14.926  0.00  0.00    -0.295 N 
ATOM     46  H   GLY A   5      16.779  16.115  14.831  0.00  0.00    +0.150 HD
BRANCH  43  47
ATOM     47  CA  GLY A   4      14.525  14.898  14.996  0.00  0.00    +0.176 C 
BRANCH  47  50
ATOM     48  C   ILE A   3      14.358  13.533  17.003  0.00  0.00    +0.241 C 
ATOM     49  O   ILE A   3      15.515  13.109  16.959  0.00  0.00    -0.273 OA
ATOM     50  N   GLY A   4      13.815  14.380  16.141  0.00  0.00    -0.295 N 
ATOM     51  H   GLY A   4      12.833  14.685  16.296  0.00  0.00    +0.150 HD
BRANCH  48  52
ATOM     52  CA  ILE A   3      13.420  13.046  18.100  0.00  0.00    +0.149 C 
BRANCH  52  54
ATOM     53  C   MET A   2      12.786  10.737  18.367  0.00  0.00    +0.241 C 
ATOM     54  N   ILE A   3      13.739  11.649  18.389  0.00  0.00    -0.297 N 
ATOM     55  H   ILE A   3      14.717  11.374  18.612  0.00  0.00    +0.150 HD
ATOM     56  O   MET A   2      11.595  10.969  18.188  0.00  0.00    -0.273 OA
BRANCH  53  57
ATOM     57  CA  MET A   2      13.229   9.293  18.589  0.00  0.00    +0.149 C 
BRANCH  57  60
ATOM     58  C   LYS A   1      12.638   8.361  20.761  0.00  0.00    +0.238 C 
ATOM     59  O   LYS A   1      13.807   8.397  21.206  0.00  0.00    -0.274 OA
ATOM     60  N   MET A   2      12.330   8.689  19.537  0.00  0.00    -0.297 N 
ATOM     61  H   MET A   2      11.358   8.499  19.221  0.00  0.00    +0.150 HD
BRANCH  58  62
ATOM     62  CA  LYS A   1      11.492   7.953  21.663  0.00  0.00    +0.145 C 
BRANCH  62  63
ATOM     63  N   LYS A   1      11.950   6.872  22.537  0.00  0.00    -0.238 NA
ATOM     64  H   LYS A   1      12.962   6.824  22.771  0.00  0.00    +0.142 HD
ENDBRANCH  62  63
BRANCH  62  65
ATOM     65  CB  LYS A   1      11.081   9.077  22.600  0.00  0.00    +0.026 C 
BRANCH  65  66
ATOM     66  CG  LYS A   1      10.807  10.451  22.033  0.00  0.00    -0.000 C 
BRANCH  66  67
ATOM     67  CD  LYS A   1       9.340  10.609  21.676  0.00  0.00    -0.024 C 
BRANCH  67  68
ATOM     68  CE  LYS A   1       9.034  11.851  20.878  0.00  0.00    -0.086 C 
BRANCH  68  69
ATOM     69  NZ  LYS A   1       7.696  12.492  21.117  0.00  0.00    +0.380 N 
ATOM     70  HZ1 LYS A   1       7.620  12.771  22.116  0.00  0.00    -0.089 HD
ATOM     71  HZ2 LYS A   1       6.942  11.814  20.887  0.00  0.00    -0.089 HD
ATOM     72  HZ3 LYS A   1       7.603  13.334  20.513  0.00  0.00    -0.089 HD
ENDBRANCH  68  69
ENDBRANCH  67  68
ENDBRANCH  66  67
ENDBRANCH  65  66
ENDBRANCH  62  65
ENDBRANCH  58  62
ENDBRANCH  57  60
BRANCH  57  73
ATOM     73  CB  MET A   2      13.297   8.517  17.269  0.00  0.00    +0.041 C 
BRANCH  73  74
ATOM     74  CG  MET A   2      14.144   7.225  17.248  0.00  0.00    +0.060 C 
BRANCH  74  75
ATOM     75  SD  MET A   2      14.526   6.834  15.530  0.00  0.00    -0.139 S 
ATOM     76  CE  MET A   2      16.308   6.998  15.481  0.00  0.00    +0.069 C 
ENDBRANCH  74  75
ENDBRANCH  73  74
ENDBRANCH  57  73
ENDBRANCH  53  57
ENDBRANCH  52  54
BRANCH  52  77
ATOM     77  CB  ILE A   3      13.496  14.003  19.313  0.00  0.00    +0.027 C 
ATOM     78  CG2 ILE A   3      12.411  13.706  20.322  0.00  0.00    +0.002 C 
BRANCH  77  79
ATOM     79  CG1 ILE A   3      14.896  14.026  19.929  0.00  0.00    +0.002 C 
ATOM     80  CD1 ILE A   3      15.031  15.044  21.035  0.00  0.00    +0.000 C 
ENDBRANCH  77  79
ENDBRANCH  52  77
ENDBRANCH  48  52
ENDBRANCH  47  50
ENDBRANCH  43  47
ENDBRANCH  42  45
ENDBRANCH   1  42
TORSDOF 35
REMARK  Name = ../refined-set-2016/2qd6/2qd6_pocket.pdb
REMARK  224 active torsions:
REMARK  status: ('A' for Active; 'I' for Inactive)
REMARK    1  A    between atoms: _1  and  _3
REMARK    2  A    between atoms: _3  and  _4
REMARK    3  A    between atoms: _3  and  _6
REMARK    4  A    between atoms: _6  and  _7
REMARK    5  A    between atoms: _7  and  _8
REMARK    6  A    between atoms: _8  and  _9
REMARK    7  A    between atoms: _18  and  _20
REMARK    8  A    between atoms: _20  and  _21
REMARK    9  A    between atoms: _20  and  _23
REMARK   10  A    between atoms: _23  and  _24
REMARK   11  A    between atoms: _27  and  _29
REMARK   12  A    between atoms: _29  and  _30
REMARK   13  A    between atoms: _29  and  _32
REMARK   14  A    between atoms: _32  and  _33
REMARK   15  A    between atoms: _36  and  _38
REMARK   16  A    between atoms: _38  and  _39
REMARK   17  A    between atoms: _38  and  _41
REMARK   18  A    between atoms: _41  and  _42
REMARK   19  A    between atoms: _45  and  _47
REMARK   20  A    between atoms: _47  and  _48
REMARK   21  A    between atoms: _47  and  _50
REMARK   22  A    between atoms: _50  and  _51
REMARK   23  A    between atoms: _54  and  _56
REMARK   24  A    between atoms: _56  and  _57
REMARK   25  A    between atoms: _59  and  _61
REMARK   26  A    between atoms: _61  and  _62
REMARK   27  A    between atoms: _65  and  _67
REMARK   28  A    between atoms: _67  and  _68
REMARK   29  A    between atoms: _67  and  _70
REMARK   30  A    between atoms: _70  and  _71
REMARK   31  A    between atoms: _74  and  _76
REMARK   32  A    between atoms: _76  and  _77
REMARK   33  A    between atoms: _76  and  _79
REMARK   34  A    between atoms: _79  and  _80
REMARK   35  A    between atoms: _83  and  _85
REMARK   36  A    between atoms: _85  and  _86
REMARK   37  A    between atoms: _85  and  _88
REMARK   38  A    between atoms: _88  and  _89
REMARK   39  A    between atoms: _92  and  _94
REMARK   40  A    between atoms: _94  and  _95
REMARK   41  A    between atoms: _94  and  _97
REMARK   42  A    between atoms: _100  and  _102
REMARK   43  A    between atoms: _102  and  _103
REMARK   44  A    between atoms: _102  and  _105
REMARK   45  A    between atoms: _105  and  _106
REMARK   46  A    between atoms: _106  and  _107
REMARK   47  A    between atoms: _107  and  _108
REMARK   48  A    between atoms: _108  and  _109
REMARK   49  A    between atoms: _113  and  _115
REMARK   50  A    between atoms: _115  and  _116
REMARK   51  A    between atoms: _115  and  _118
REMARK   52  A    between atoms: _118  and  _119
REMARK   53  A    between atoms: _119  and  _120
REMARK   54  A    between atoms: _122  and  _124
REMARK   55  A    between atoms: _124  and  _125
REMARK   56  A    between atoms: _124  and  _127
REMARK   57  A    between atoms: _127  and  _128
REMARK   58  A    between atoms: _131  and  _133
REMARK   59  A    between atoms: _133  and  _134
REMARK   60  A    between atoms: _136  and  _138
REMARK   61  A    between atoms: _138  and  _139
REMARK   62  A    between atoms: _141  and  _143
REMARK   63  A    between atoms: _143  and  _144
REMARK   64  A    between atoms: _143  and  _146
REMARK   65  A    between atoms: _149  and  _151
REMARK   66  A    between atoms: _151  and  _152
REMARK   67  A    between atoms: _154  and  _156
REMARK   68  A    between atoms: _156  and  _157
REMARK   69  A    between atoms: _159  and  _161
REMARK   70  A    between atoms: _161  and  _162
REMARK   71  A    between atoms: _161  and  _164
REMARK   72  A    between atoms: _164  and  _165
REMARK   73  A    between atoms: _171  and  _173
REMARK   74  A    between atoms: _173  and  _174
REMARK   75  A    between atoms: _173  and  _176
REMARK   76  A    between atoms: _176  and  _177
REMARK   77  A    between atoms: _180  and  _182
REMARK   78  A    between atoms: _182  and  _183
REMARK   79  A    between atoms: _182  and  _185
REMARK   80  A    between atoms: _185  and  _186
REMARK   81  A    between atoms: _189  and  _191
REMARK   82  A    between atoms: _191  and  _192
REMARK   83  A    between atoms: _191  and  _194
REMARK   84  A    between atoms: _194  and  _195
REMARK   85  A    between atoms: _199  and  _200
REMARK   86  A    between atoms: _205  and  _207
REMARK   87  A    between atoms: _207  and  _208
REMARK   88  A    between atoms: _207  and  _210
REMARK   89  A    between atoms: _213  and  _215
REMARK   90  A    between atoms: _215  and  _216
REMARK   91  A    between atoms: _215  and  _218
REMARK   92  A    between atoms: _218  and  _219
REMARK   93  A    between atoms: _224  and  _226
REMARK   94  A    between atoms: _226  and  _227
REMARK   95  A    between atoms: _226  and  _229
REMARK   96  A    between atoms: _229  and  _230
REMARK   97  A    between atoms: _233  and  _235
REMARK   98  A    between atoms: _235  and  _236
REMARK   99  A    between atoms: _235  and  _238
REMARK  100  A    between atoms: _238  and  _239
REMARK  101  A    between atoms: _242  and  _244
REMARK  102  A    between atoms: _244  and  _245
REMARK  103  A    between atoms: _247  and  _249
REMARK  104  A    between atoms: _249  and  _250
REMARK  105  A    between atoms: _249  and  _252
REMARK  106  A    between atoms: _252  and  _253
REMARK  107  A    between atoms: _253  and  _254
REMARK  108  A    between atoms: _254  and  _255
REMARK  109  A    between atoms: _264  and  _266
REMARK  110  A    between atoms: _266  and  _267
REMARK  111  A    between atoms: _266  and  _269
REMARK  112  A    between atoms: _269  and  _270
REMARK  113  A    between atoms: _275  and  _277
REMARK  114  A    between atoms: _277  and  _278
REMARK  115  A    between atoms: _277  and  _280
REMARK  116  A    between atoms: _280  and  _281
REMARK  117  A    between atoms: _281  and  _282
REMARK  118  A    between atoms: _282  and  _283
REMARK  119  A    between atoms: _292  and  _294
REMARK  120  A    between atoms: _294  and  _295
REMARK  121  A    between atoms: _294  and  _297
REMARK  122  A    between atoms: _297  and  _298
REMARK  123  A    between atoms: _301  and  _303
REMARK  124  A    between atoms: _303  and  _304
REMARK  125  A    between atoms: _303  and  _306
REMARK  126  A    between atoms: _306  and  _307
REMARK  127  A    between atoms: _310  and  _312
REMARK  128  A    between atoms: _312  and  _313
REMARK  129  A    between atoms: _312  and  _315
REMARK  130  A    between atoms: _315  and  _316
REMARK  131  A    between atoms: _319  and  _321
REMARK  132  A    between atoms: _321  and  _322
REMARK  133  A    between atoms: _321  and  _324
REMARK  134  A    between atoms: _324  and  _325
REMARK  135  A    between atoms: _328  and  _330
REMARK  136  A    between atoms: _330  and  _331
REMARK  137  A    between atoms: _333  and  _335
REMARK  138  A    between atoms: _335  and  _336
REMARK  139  A    between atoms: _339  and  _341
REMARK  140  A    between atoms: _341  and  _342
REMARK  141  A    between atoms: _341  and  _344
REMARK  142  A    between atoms: _344  and  _345
REMARK  143  A    between atoms: _348  and  _350
REMARK  144  A    between atoms: _350  and  _351
REMARK  145  A    between atoms: _350  and  _353
REMARK  146  A    between atoms: _353  and  _354
REMARK  147  A    between atoms: _357  and  _359
REMARK  148  A    between atoms: _359  and  _360
REMARK  149  A    between atoms: _359  and  _362
REMARK  150  A    between atoms: _362  and  _363
REMARK  151  A    between atoms: _366  and  _368
REMARK  152  A    between atoms: _368  and  _369
REMARK  153  A    between atoms: _368  and  _371
REMARK  154  A    between atoms: _374  and  _376
REMARK  155  A    between atoms: _376  and  _377
REMARK  156  A    between atoms: _376  and  _379
REMARK  157  A    between atoms: _379  and  _380
REMARK  158  A    between atoms: _380  and  _381
REMARK  159  A    between atoms: _381  and  _382
REMARK  160  A    between atoms: _382  and  _383
REMARK  161  A    between atoms: _387  and  _389
REMARK  162  A    between atoms: _389  and  _390
REMARK  163  A    between atoms: _389  and  _392
REMARK  164  A    between atoms: _392  and  _393
REMARK  165  A    between atoms: _393  and  _394
REMARK  166  A    between atoms: _396  and  _398
REMARK  167  A    between atoms: _398  and  _399
REMARK  168  A    between atoms: _398  and  _401
REMARK  169  A    between atoms: _401  and  _402
REMARK  170  A    between atoms: _405  and  _407
REMARK  171  A    between atoms: _407  and  _408
REMARK  172  A    between atoms: _410  and  _412
REMARK  173  A    between atoms: _412  and  _413
REMARK  174  A    between atoms: _415  and  _417
REMARK  175  A    between atoms: _417  and  _418
REMARK  176  A    between atoms: _417  and  _420
REMARK  177  A    between atoms: _423  and  _425
REMARK  178  A    between atoms: _425  and  _426
REMARK  179  A    between atoms: _428  and  _430
REMARK  180  A    between atoms: _430  and  _431
REMARK  181  A    between atoms: _433  and  _435
REMARK  182  A    between atoms: _435  and  _436
REMARK  183  A    between atoms: _435  and  _438
REMARK  184  A    between atoms: _438  and  _439
REMARK  185  A    between atoms: _445  and  _447
REMARK  186  A    between atoms: _447  and  _448
REMARK  187  A    between atoms: _447  and  _450
REMARK  188  A    between atoms: _450  and  _451
REMARK  189  A    between atoms: _454  and  _456
REMARK  190  A    between atoms: _456  and  _457
REMARK  191  A    between atoms: _456  and  _459
REMARK  192  A    between atoms: _459  and  _460
REMARK  193  A    between atoms: _463  and  _465
REMARK  194  A    between atoms: _465  and  _466
REMARK  195  A    between atoms: _465  and  _468
REMARK  196  A    between atoms: _468  and  _469
REMARK  197  A    between atoms: _473  and  _474
REMARK  198  A    between atoms: _479  and  _481
REMARK  199  A    between atoms: _481  and  _482
REMARK  200  A    between atoms: _481  and  _484
REMARK  201  A    between atoms: _487  and  _489
REMARK  202  A    between atoms: _489  and  _490
REMARK  203  A    between atoms: _489  and  _492
REMARK  204  A    between atoms: _492  and  _493
REMARK  205  A    between atoms: _498  and  _500
REMARK  206  A    between atoms: _500  and  _501
REMARK  207  A    between atoms: _500  and  _503
REMARK  208  A    between atoms: _503  and  _504
REMARK  209  A    between atoms: _507  and  _509
REMARK  210  A    between atoms: _509  and  _510
REMARK  211  A    between atoms: _509  and  _512
REMARK  212  A    between atoms: _512  and  _513
REMARK  213  A    between atoms: _516  and  _518
REMARK  214  A    between atoms: _518  and  _519
REMARK  215  A    between atoms: _521  and  _523
REMARK  216  A    between atoms: _523  and  _524
REMARK  217  A    between atoms: _523  and  _526
REMARK  218  A    between atoms: _526  and  _527
REMARK  219  A    between atoms: _527  and  _528
REMARK  220  A    between atoms: _528  and  _529
REMARK  221  A    between atoms: _538  and  _540
REMARK  222  A    between atoms: _540  and  _541
REMARK  223  A    between atoms: _540  and  _543
REMARK  224  A    between atoms: _543  and  _544
REMARK                            x       y       z     vdW  Elec       q    Type
REMARK                         _______ _______ _______ _____ _____    ______ ____
ROOT
ATOM      1  CA  LEU A   1      13.213  13.336  27.473  0.00  0.00    +0.133 C 
ENDROOT
BRANCH   1   2
ATOM      2  N   LEU A   1      12.367  14.201  28.273  0.00  0.00    -0.239 NA
ATOM      3  H   LEU A   1      12.254  15.192  27.979  0.00  0.00    +0.142 HD
ENDBRANCH   1   2
BRANCH   1   4
ATOM      4  C   LEU A   1      14.669  13.546  27.924  0.00  0.00    +0.224 C 
ATOM      5  O   LEU A   1      15.097  14.672  28.130  0.00  0.00    -0.287 OA
ENDBRANCH   1   4
BRANCH   1   6
ATOM      6  CB  LEU A   1      13.093  13.636  25.970  0.00  0.00    +0.025 C 
BRANCH   6   7
ATOM      7  CG  LEU A   1      11.661  13.697  25.420  0.00  0.00    +0.002 C 
ATOM      8  CD2 LEU A   1      10.892  12.414  25.727  0.00  0.00    +0.000 C 
ATOM      9  CD1 LEU A   1      11.655  14.050  23.948  0.00  0.00    +0.000 C 
ENDBRANCH   6   7
ENDBRANCH   1   6
TORSDOF 4
REMARK  Name = ../refined-set-2016/2qd6/2qd6_pocket.pdb
REMARK  224 active torsions:
REMARK  status: ('A' for Active; 'I' for Inactive)
REMARK    1  A    between atoms: _1  and  _3
REMARK    2  A    between atoms: _3  and  _4
REMARK    3  A    between atoms: _3  and  _6
REMARK    4  A    between atoms: _6  and  _7
REMARK    5  A    between atoms: _7  and  _8
REMARK    6  A    between atoms: _8  and  _9
REMARK    7  A    between atoms: _18  and  _20
REMARK    8  A    between atoms: _20  and  _21
REMARK    9  A    between atoms: _20  and  _23
REMARK   10  A    between atoms: _23  and  _24
REMARK   11  A    between atoms: _27  and  _29
REMARK   12  A    between atoms: _29  and  _30
REMARK   13  A    between atoms: _29  and  _32
REMARK   14  A    between atoms: _32  and  _33
REMARK   15  A    between atoms: _36  and  _38
REMARK   16  A    between atoms: _38  and  _39
REMARK   17  A    between atoms: _38  and  _41
REMARK   18  A    between atoms: _41  and  _42
REMARK   19  A    between atoms: _45  and  _47
REMARK   20  A    between atoms: _47  and  _48
REMARK   21  A    between atoms: _47  and  _50
REMARK   22  A    between atoms: _50  and  _51
REMARK   23  A    between atoms: _54  and  _56
REMARK   24  A    between atoms: _56  and  _57
REMARK   25  A    between atoms: _59  and  _61
REMARK   26  A    between atoms: _61  and  _62
REMARK   27  A    between atoms: _65  and  _67
REMARK   28  A    between atoms: _67  and  _68
REMARK   29  A    between atoms: _67  and  _70
REMARK   30  A    between atoms: _70  and  _71
REMARK   31  A    between atoms: _74  and  _76
REMARK   32  A    between atoms: _76  and  _77
REMARK   33  A    between atoms: _76  and  _79
REMARK   34  A    between atoms: _79  and  _80
REMARK   35  A    between atoms: _83  and  _85
REMARK   36  A    between atoms: _85  and  _86
REMARK   37  A    between atoms: _85  and  _88
REMARK   38  A    between atoms: _88  and  _89
REMARK   39  A    between atoms: _92  and  _94
REMARK   40  A    between atoms: _94  and  _95
REMARK   41  A    between atoms: _94  and  _97
REMARK   42  A    between atoms: _100  and  _102
REMARK   43  A    between atoms: _102  and  _103
REMARK   44  A    between atoms: _102  and  _105
REMARK   45  A    between atoms: _105  and  _106
REMARK   46  A    between atoms: _106  and  _107
REMARK   47  A    between atoms: _107  and  _108
REMARK   48  A    between atoms: _108  and  _109
REMARK   49  A    between atoms: _113  and  _115
REMARK   50  A    between atoms: _115  and  _116
REMARK   51  A    between atoms: _115  and  _118
REMARK   52  A    between atoms: _118  and  _119
REMARK   53  A    between atoms: _119  and  _120
REMARK   54  A    between atoms: _122  and  _124
REMARK   55  A    between atoms: _124  and  _125
REMARK   56  A    between atoms: _124  and  _127
REMARK   57  A    between atoms: _127  and  _128
REMARK   58  A    between atoms: _131  and  _133
REMARK   59  A    between atoms: _133  and  _134
REMARK   60  A    between atoms: _136  and  _138
REMARK   61  A    between atoms: _138  and  _139
REMARK   62  A    between atoms: _141  and  _143
REMARK   63  A    between atoms: _143  and  _144
REMARK   64  A    between atoms: _143  and  _146
REMARK   65  A    between atoms: _149  and  _151
REMARK   66  A    between atoms: _151  and  _152
REMARK   67  A    between atoms: _154  and  _156
REMARK   68  A    between atoms: _156  and  _157
REMARK   69  A    between atoms: _159  and  _161
REMARK   70  A    between atoms: _161  and  _162
REMARK   71  A    between atoms: _161  and  _164
REMARK   72  A    between atoms: _164  and  _165
REMARK   73  A    between atoms: _171  and  _173
REMARK   74  A    between atoms: _173  and  _174
REMARK   75  A    between atoms: _173  and  _176
REMARK   76  A    between atoms: _176  and  _177
REMARK   77  A    between atoms: _180  and  _182
REMARK   78  A    between atoms: _182  and  _183
REMARK   79  A    between atoms: _182  and  _185
REMARK   80  A    between atoms: _185  and  _186
REMARK   81  A    between atoms: _189  and  _191
REMARK   82  A    between atoms: _191  and  _192
REMARK   83  A    between atoms: _191  and  _194
REMARK   84  A    between atoms: _194  and  _195
REMARK   85  A    between atoms: _199  and  _200
REMARK   86  A    between atoms: _205  and  _207
REMARK   87  A    between atoms: _207  and  _208
REMARK   88  A    between atoms: _207  and  _210
REMARK   89  A    between atoms: _213  and  _215
REMARK   90  A    between atoms: _215  and  _216
REMARK   91  A    between atoms: _215  and  _218
REMARK   92  A    between atoms: _218  and  _219
REMARK   93  A    between atoms: _224  and  _226
REMARK   94  A    between atoms: _226  and  _227
REMARK   95  A    between atoms: _226  and  _229
REMARK   96  A    between atoms: _229  and  _230
REMARK   97  A    between atoms: _233  and  _235
REMARK   98  A    between atoms: _235  and  _236
REMARK   99  A    between atoms: _235  and  _238
REMARK  100  A    between atoms: _238  and  _239
REMARK  101  A    between atoms: _242  and  _244
REMARK  102  A    between atoms: _244  and  _245
REMARK  103  A    between atoms: _247  and  _249
REMARK  104  A    between atoms: _249  and  _250
REMARK  105  A    between atoms: _249  and  _252
REMARK  106  A    between atoms: _252  and  _253
REMARK  107  A    between atoms: _253  and  _254
REMARK  108  A    between atoms: _254  and  _255
REMARK  109  A    between atoms: _264  and  _266
REMARK  110  A    between atoms: _266  and  _267
REMARK  111  A    between atoms: _266  and  _269
REMARK  112  A    between atoms: _269  and  _270
REMARK  113  A    between atoms: _275  and  _277
REMARK  114  A    between atoms: _277  and  _278
REMARK  115  A    between atoms: _277  and  _280
REMARK  116  A    between atoms: _280  and  _281
REMARK  117  A    between atoms: _281  and  _282
REMARK  118  A    between atoms: _282  and  _283
REMARK  119  A    between atoms: _292  and  _294
REMARK  120  A    between atoms: _294  and  _295
REMARK  121  A    between atoms: _294  and  _297
REMARK  122  A    between atoms: _297  and  _298
REMARK  123  A    between atoms: _301  and  _303
REMARK  124  A    between atoms: _303  and  _304
REMARK  125  A    between atoms: _303  and  _306
REMARK  126  A    between atoms: _306  and  _307
REMARK  127  A    between atoms: _310  and  _312
REMARK  128  A    between atoms: _312  and  _313
REMARK  129  A    between atoms: _312  and  _315
REMARK  130  A    between atoms: _315  and  _316
REMARK  131  A    between atoms: _319  and  _321
REMARK  132  A    between atoms: _321  and  _322
REMARK  133  A    between atoms: _321  and  _324
REMARK  134  A    between atoms: _324  and  _325
REMARK  135  A    between atoms: _328  and  _330
REMARK  136  A    between atoms: _330  and  _331
REMARK  137  A    between atoms: _333  and  _335
REMARK  138  A    between atoms: _335  and  _336
REMARK  139  A    between atoms: _339  and  _341
REMARK  140  A    between atoms: _341  and  _342
REMARK  141  A    between atoms: _341  and  _344
REMARK  142  A    between atoms: _344  and  _345
REMARK  143  A    between atoms: _348  and  _350
REMARK  144  A    between atoms: _350  and  _351
REMARK  145  A    between atoms: _350  and  _353
REMARK  146  A    between atoms: _353  and  _354
REMARK  147  A    between atoms: _357  and  _359
REMARK  148  A    between atoms: _359  and  _360
REMARK  149  A    between atoms: _359  and  _362
REMARK  150  A    between atoms: _362  and  _363
REMARK  151  A    between atoms: _366  and  _368
REMARK  152  A    between atoms: _368  and  _369
REMARK  153  A    between atoms: _368  and  _371
REMARK  154  A    between atoms: _374  and  _376
REMARK  155  A    between atoms: _376  and  _377
REMARK  156  A    between atoms: _376  and  _379
REMARK  157  A    between atoms: _379  and  _380
REMARK  158  A    between atoms: _380  and  _381
REMARK  159  A    between atoms: _381  and  _382
REMARK  160  A    between atoms: _382  and  _383
REMARK  161  A    between atoms: _387  and  _389
REMARK  162  A    between atoms: _389  and  _390
REMARK  163  A    between atoms: _389  and  _392
REMARK  164  A    between atoms: _392  and  _393
REMARK  165  A    between atoms: _393  and  _394
REMARK  166  A    between atoms: _396  and  _398
REMARK  167  A    between atoms: _398  and  _399
REMARK  168  A    between atoms: _398  and  _401
REMARK  169  A    between atoms: _401  and  _402
REMARK  170  A    between atoms: _405  and  _407
REMARK  171  A    between atoms: _407  and  _408
REMARK  172  A    between atoms: _410  and  _412
REMARK  173  A    between atoms: _412  and  _413
REMARK  174  A    between atoms: _415  and  _417
REMARK  175  A    between atoms: _417  and  _418
REMARK  176  A    between atoms: _417  and  _420
REMARK  177  A    between atoms: _423  and  _425
REMARK  178  A    between atoms: _425  and  _426
REMARK  179  A    between atoms: _428  and  _430
REMARK  180  A    between atoms: _430  and  _431
REMARK  181  A    between atoms: _433  and  _435
REMARK  182  A    between atoms: _435  and  _436
REMARK  183  A    between atoms: _435  and  _438
REMARK  184  A    between atoms: _438  and  _439
REMARK  185  A    between atoms: _445  and  _447
REMARK  186  A    between atoms: _447  and  _448
REMARK  187  A    between atoms: _447  and  _450
REMARK  188  A    between atoms: _450  and  _451
REMARK  189  A    between atoms: _454  and  _456
REMARK  190  A    between atoms: _456  and  _457
REMARK  191  A    between atoms: _456  and  _459
REMARK  192  A    between atoms: _459  and  _460
REMARK  193  A    between atoms: _463  and  _465
REMARK  194  A    between atoms: _465  and  _466
REMARK  195  A    between atoms: _465  and  _468
REMARK  196  A    between atoms: _468  and  _469
REMARK  197  A    between atoms: _473  and  _474
REMARK  198  A    between atoms: _479  and  _481
REMARK  199  A    between atoms: _481  and  _482
REMARK  200  A    between atoms: _481  and  _484
REMARK  201  A    between atoms: _487  and  _489
REMARK  202  A    between atoms: _489  and  _490
REMARK  203  A    between atoms: _489  and  _492
REMARK  204  A    between atoms: _492  and  _493
REMARK  205  A    between atoms: _498  and  _500
REMARK  206  A    between atoms: _500  and  _501
REMARK  207  A    between atoms: _500  and  _503
REMARK  208  A    between atoms: _503  and  _504
REMARK  209  A    between atoms: _507  and  _509
REMARK  210  A    between atoms: _509  and  _510
REMARK  211  A    between atoms: _509  and  _512
REMARK  212  A    between atoms: _512  and  _513
REMARK  213  A    between atoms: _516  and  _518
REMARK  214  A    between atoms: _518  and  _519
REMARK  215  A    between atoms: _521  and  _523
REMARK  216  A    between atoms: _523  and  _524
REMARK  217  A    between atoms: _523  and  _526
REMARK  218  A    between atoms: _526  and  _527
REMARK  219  A    between atoms: _527  and  _528
REMARK  220  A    between atoms: _528  and  _529
REMARK  221  A    between atoms: _538  and  _540
REMARK  222  A    between atoms: _540  and  _541
REMARK  223  A    between atoms: _540  and  _543
REMARK  224  A    between atoms: _543  and  _544
REMARK                            x       y       z     vdW  Elec       q    Type
REMARK                         _______ _______ _______ _____ _____    ______ ____
ROOT
ATOM      1  C   ILE A   5      14.329  22.369  26.829  0.00  0.00    +0.241 C 
ATOM      2  N   ILE A   6      13.621  23.445  27.172  0.00  0.00    -0.297 N 
ATOM      3  H   ILE A   6      14.077  24.375  27.082  0.00  0.00    +0.150 HD
ATOM      4  O   ILE A   5      13.939  21.217  27.066  0.00  0.00    -0.273 OA
ENDROOT
BRANCH   1   5
ATOM      5  CA  ILE A   5      15.685  22.624  26.213  0.00  0.00    +0.149 C 
BRANCH   5   8
ATOM      6  C   ASN A   4      17.813  22.492  27.440  0.00  0.00    +0.241 C 
ATOM      7  O   ASN A   4      17.991  23.708  27.414  0.00  0.00    -0.273 OA
ATOM      8  N   ILE A   5      16.749  21.877  26.907  0.00  0.00    -0.297 N 
ATOM      9  H   ILE A   5      16.672  20.843  26.985  0.00  0.00    +0.150 HD
BRANCH   6  10
ATOM     10  CA  ASN A   4      18.850  21.577  28.075  0.00  0.00    +0.158 C 
BRANCH  10  12
ATOM     11  C   VAL A   3      20.452  21.658  26.270  0.00  0.00    +0.241 C 
ATOM     12  N   ASN A   4      20.138  21.924  27.518  0.00  0.00    -0.297 N 
ATOM     13  H   ASN A   4      20.838  22.399  28.124  0.00  0.00    +0.150 HD
ATOM     14  O   VAL A   3      19.674  20.973  25.596  0.00  0.00    -0.273 OA
BRANCH  11  15
ATOM     15  CA  VAL A   3      21.757  22.192  25.719  0.00  0.00    +0.149 C 
BRANCH  15  18
ATOM     16  C   PRO A   2      23.385  20.965  24.332  0.00  0.00    +0.241 C 
ATOM     17  O   PRO A   2      24.376  21.496  24.808  0.00  0.00    -0.273 OA
ATOM     18  N   VAL A   3      22.152  21.276  24.634  0.00  0.00    -0.297 N 
ATOM     19  H   VAL A   3      21.394  20.845  24.067  0.00  0.00    +0.150 HD
BRANCH  16  23
ATOM     20  C   THR A   1      22.201  18.046  23.813  0.00  0.00    +0.244 C 
ATOM     21  O   THR A   1      22.826  17.895  24.875  0.00  0.00    -0.273 OA
ATOM     22  N   PRO A   2      22.541  18.975  22.922  0.00  0.00    -0.272 N 
ATOM     23  CA  PRO A   2      23.623  19.917  23.253  0.00  0.00    +0.152 C 
ATOM     24  CB  PRO A   2      23.770  20.712  21.951  0.00  0.00    +0.031 C 
ATOM     25  CG  PRO A   2      22.452  20.587  21.256  0.00  0.00    +0.024 C 
ATOM     26  CD  PRO A   2      21.999  19.176  21.569  0.00  0.00    +0.094 C 
BRANCH  20  27
ATOM     27  CA  THR A   1      21.047  17.106  23.505  0.00  0.00    +0.172 C 
BRANCH  27  28
ATOM     28  N   THR A   1      21.377  15.797  24.025  0.00  0.00    -0.236 NA
ATOM     29  H   THR A   1      21.030  15.514  24.964  0.00  0.00    +0.142 HD
ENDBRANCH  27  28
BRANCH  27  30
ATOM     30  CB  THR A   1      19.750  17.652  24.102  0.00  0.00    +0.135 C 
ATOM     31  CG2 THR A   1      19.776  17.719  25.633  0.00  0.00    +0.034 C 
BRANCH  30  32
ATOM     32  OG1 THR A   1      19.602  18.984  23.599  0.00  0.00    -0.383 OA
ATOM     33  HG1 THR A   1      20.379  19.530  23.879  0.00  0.00    +0.210 HD
ENDBRANCH  30  32
ENDBRANCH  27  30
ENDBRANCH  20  27
ENDBRANCH  16  23
ENDBRANCH  15  18
BRANCH  15  34
ATOM     34  CB  VAL A   3      21.626  23.624  25.213  0.00  0.00    +0.027 C 
ATOM     35  CG2 VAL A   3      22.949  24.204  24.724  0.00  0.00    +0.002 C 
ATOM     36  CG1 VAL A   3      20.615  23.632  24.070  0.00  0.00    +0.002 C 
ENDBRANCH  15  34
ENDBRANCH  11  15
ENDBRANCH  10  12
BRANCH  10  37
ATOM     37  CB  ASN A   4      18.841  21.790  29.579  0.00  0.00    +0.114 C 
BRANCH  37  38
ATOM     38  CG  ASN A   4      19.838  20.877  30.286  0.00  0.00    +0.222 C 
ATOM     39  ND2 ASN A   4      20.446  21.369  31.329  0.00  0.00    -0.329 N 
ATOM     40 HD21 ASN A   4      21.132  20.789  31.853  0.00  0.00    +0.145 HD
ATOM     41 HD22 ASN A   4      20.245  22.342  31.637  0.00  0.00    +0.145 HD
ATOM     42  OD1 ASN A   4      20.040  19.731  29.880  0.00  0.00    -0.275 OA
ENDBRANCH  37  38
ENDBRANCH  10  37
ENDBRANCH   6  10
ENDBRANCH   5   8
BRANCH   5  43
ATOM     43  CB  ILE A   5      15.737  22.388  24.687  0.00  0.00    +0.027 C 
ATOM     44  CG2 ILE A   5      17.007  23.036  24.116  0.00  0.00    +0.002 C 
BRANCH  43  45
ATOM     45  CG1 ILE A   5      15.610  20.955  24.169  0.00  0.00    +0.002 C 
ATOM     46  CD1 ILE A   5      15.741  20.803  22.669  0.00  0.00    +0.000 C 
ENDBRANCH  43  45
ENDBRANCH   5  43
ENDBRANCH   1   5
BRANCH   2  47
ATOM     47  CA  ILE A   6      12.273  23.406  27.657  0.00  0.00    +0.149 C 
BRANCH  47  48
ATOM     48  C   ILE A   6      11.367  23.649  26.444  0.00  0.00    +0.241 C 
ATOM     49  N   GLY A   7      10.615  22.628  26.045  0.00  0.00    -0.295 N 
ATOM     50  H   GLY A   7      10.667  21.743  26.588  0.00  0.00    +0.150 HD
ATOM     51  O   ILE A   6      11.361  24.740  25.854  0.00  0.00    -0.273 OA
BRANCH  49  52
ATOM     52  CA  GLY A   7       9.739  22.672  24.915  0.00  0.00    +0.176 C 
BRANCH  52  53
ATOM     53  C   GLY A   7       8.295  22.978  25.239  0.00  0.00    +0.243 C 
ATOM     54  O   GLY A   7       7.927  23.205  26.392  0.00  0.00    -0.273 OA
ATOM     55  N   ARG A   8       7.482  22.948  24.190  0.00  0.00    -0.297 N 
ATOM     56  H   ARG A   8       7.802  22.570  23.276  0.00  0.00    +0.150 HD
BRANCH  55  57
ATOM     57  CA  ARG A   8       6.134  23.459  24.357  0.00  0.00    +0.149 C 
BRANCH  57  58
ATOM     58  C   ARG A   8       5.305  22.640  25.316  0.00  0.00    +0.241 C 
ATOM     59  O   ARG A   8       4.387  23.177  25.936  0.00  0.00    -0.273 OA
ATOM     60  N   ASN A   9       5.592  21.368  25.476  0.00  0.00    -0.298 N 
ATOM     61  H   ASN A   9       6.350  20.932  24.913  0.00  0.00    +0.150 HD
BRANCH  60  62
ATOM     62  CA  ASN A   9       4.845  20.561  26.448  0.00  0.00    +0.146 C 
BRANCH  62  63
ATOM     63  C   ASN A   9       4.911  21.153  27.848  0.00  0.00    +0.227 C 
ATOM     64  O   ASN A   9       3.909  21.058  28.600  0.00  0.00    -0.286 OA
ENDBRANCH  62  63
BRANCH  62  65
ATOM     65  CB  ASN A   9       5.321  19.123  26.460  0.00  0.00    +0.112 C 
BRANCH  65  66
ATOM     66  CG  ASN A   9       6.653  18.885  27.117  0.00  0.00    +0.222 C 
ATOM     67  ND2 ASN A   9       6.676  17.959  28.071  0.00  0.00    -0.329 N 
ATOM     68 HD21 ASN A   9       7.566  17.742  28.564  0.00  0.00    +0.145 HD
ATOM     69 HD22 ASN A   9       5.804  17.452  28.324  0.00  0.00    +0.145 HD
ATOM     70  OD1 ASN A   9       7.638  19.535  26.752  0.00  0.00    -0.275 OA
ENDBRANCH  65  66
ENDBRANCH  62  65
ENDBRANCH  60  62
ENDBRANCH  57  58
BRANCH  57  71
ATOM     71  CB  ARG A   8       5.460  23.524  22.967  0.00  0.00    +0.033 C 
BRANCH  71  72
ATOM     72  CG  ARG A   8       6.023  24.563  22.047  0.00  0.00    +0.045 C 
BRANCH  72  73
ATOM     73  CD  ARG A   8       5.209  24.776  20.755  0.00  0.00    +0.174 C 
BRANCH  73  74
ATOM     74  NE  ARG A   8       5.214  23.525  19.969  0.00  0.00    -0.265 N 
ATOM     75  CZ  ARG A   8       4.247  22.622  19.970  0.00  0.00    +0.342 C 
ATOM     76  NH2 ARG A   8       3.113  22.731  20.648  0.00  0.00    -0.292 N 
ATOM     77 HH21 ARG A   8       2.935  23.573  21.232  0.00  0.00    +0.255 HD
ATOM     78 HH22 ARG A   8       2.401  21.975  20.596  0.00  0.00    +0.255 HD
ATOM     79  NH1 ARG A   8       4.403  21.513  19.235  0.00  0.00    -0.292 N 
ATOM     80 HH11 ARG A   8       3.656  20.789  19.220  0.00  0.00    +0.255 HD
ATOM     81 HH12 ARG A   8       5.271  21.376  18.679  0.00  0.00    +0.255 HD
ATOM     82  HE  ARG A   8       6.042  23.340  19.368  0.00  0.00    +0.259 HD
ENDBRANCH  73  74
ENDBRANCH  72  73
ENDBRANCH  71  72
ENDBRANCH  57  71
ENDBRANCH  55  57
ENDBRANCH  52  53
ENDBRANCH  49  52
ENDBRANCH  47  48
BRANCH  47  83
ATOM     83  CB  ILE A   6      12.002  24.445  28.750  0.00  0.00    +0.027 C 
ATOM     84  CG2 ILE A   6      10.566  24.336  29.223  0.00  0.00    +0.002 C 
BRANCH  83  85
ATOM     85  CG1 ILE A   6      13.006  24.371  29.885  0.00  0.00    +0.002 C 
ATOM     86  CD1 ILE A   6      13.073  22.987  30.547  0.00  0.00    +0.000 C 
ENDBRANCH  83  85
ENDBRANCH  47  83
ENDBRANCH   2  47
TORSDOF 32
REMARK  Name = ../refined-set-2016/2qd6/2qd6_pocket.pdb
REMARK  224 active torsions:
REMARK  status: ('A' for Active; 'I' for Inactive)
REMARK    1  A    between atoms: _1  and  _3
REMARK    2  A    between atoms: _3  and  _4
REMARK    3  A    between atoms: _3  and  _6
REMARK    4  A    between atoms: _6  and  _7
REMARK    5  A    between atoms: _7  and  _8
REMARK    6  A    between atoms: _8  and  _9
REMARK    7  A    between atoms: _18  and  _20
REMARK    8  A    between atoms: _20  and  _21
REMARK    9  A    between atoms: _20  and  _23
REMARK   10  A    between atoms: _23  and  _24
REMARK   11  A    between atoms: _27  and  _29
REMARK   12  A    between atoms: _29  and  _30
REMARK   13  A    between atoms: _29  and  _32
REMARK   14  A    between atoms: _32  and  _33
REMARK   15  A    between atoms: _36  and  _38
REMARK   16  A    between atoms: _38  and  _39
REMARK   17  A    between atoms: _38  and  _41
REMARK   18  A    between atoms: _41  and  _42
REMARK   19  A    between atoms: _45  and  _47
REMARK   20  A    between atoms: _47  and  _48
REMARK   21  A    between atoms: _47  and  _50
REMARK   22  A    between atoms: _50  and  _51
REMARK   23  A    between atoms: _54  and  _56
REMARK   24  A    between atoms: _56  and  _57
REMARK   25  A    between atoms: _59  and  _61
REMARK   26  A    between atoms: _61  and  _62
REMARK   27  A    between atoms: _65  and  _67
REMARK   28  A    between atoms: _67  and  _68
REMARK   29  A    between atoms: _67  and  _70
REMARK   30  A    between atoms: _70  and  _71
REMARK   31  A    between atoms: _74  and  _76
REMARK   32  A    between atoms: _76  and  _77
REMARK   33  A    between atoms: _76  and  _79
REMARK   34  A    between atoms: _79  and  _80
REMARK   35  A    between atoms: _83  and  _85
REMARK   36  A    between atoms: _85  and  _86
REMARK   37  A    between atoms: _85  and  _88
REMARK   38  A    between atoms: _88  and  _89
REMARK   39  A    between atoms: _92  and  _94
REMARK   40  A    between atoms: _94  and  _95
REMARK   41  A    between atoms: _94  and  _97
REMARK   42  A    between atoms: _100  and  _102
REMARK   43  A    between atoms: _102  and  _103
REMARK   44  A    between atoms: _102  and  _105
REMARK   45  A    between atoms: _105  and  _106
REMARK   46  A    between atoms: _106  and  _107
REMARK   47  A    between atoms: _107  and  _108
REMARK   48  A    between atoms: _108  and  _109
REMARK   49  A    between atoms: _113  and  _115
REMARK   50  A    between atoms: _115  and  _116
REMARK   51  A    between atoms: _115  and  _118
REMARK   52  A    between atoms: _118  and  _119
REMARK   53  A    between atoms: _119  and  _120
REMARK   54  A    between atoms: _122  and  _124
REMARK   55  A    between atoms: _124  and  _125
REMARK   56  A    between atoms: _124  and  _127
REMARK   57  A    between atoms: _127  and  _128
REMARK   58  A    between atoms: _131  and  _133
REMARK   59  A    between atoms: _133  and  _134
REMARK   60  A    between atoms: _136  and  _138
REMARK   61  A    between atoms: _138  and  _139
REMARK   62  A    between atoms: _141  and  _143
REMARK   63  A    between atoms: _143  and  _144
REMARK   64  A    between atoms: _143  and  _146
REMARK   65  A    between atoms: _149  and  _151
REMARK   66  A    between atoms: _151  and  _152
REMARK   67  A    between atoms: _154  and  _156
REMARK   68  A    between atoms: _156  and  _157
REMARK   69  A    between atoms: _159  and  _161
REMARK   70  A    between atoms: _161  and  _162
REMARK   71  A    between atoms: _161  and  _164
REMARK   72  A    between atoms: _164  and  _165
REMARK   73  A    between atoms: _171  and  _173
REMARK   74  A    between atoms: _173  and  _174
REMARK   75  A    between atoms: _173  and  _176
REMARK   76  A    between atoms: _176  and  _177
REMARK   77  A    between atoms: _180  and  _182
REMARK   78  A    between atoms: _182  and  _183
REMARK   79  A    between atoms: _182  and  _185
REMARK   80  A    between atoms: _185  and  _186
REMARK   81  A    between atoms: _189  and  _191
REMARK   82  A    between atoms: _191  and  _192
REMARK   83  A    between atoms: _191  and  _194
REMARK   84  A    between atoms: _194  and  _195
REMARK   85  A    between atoms: _199  and  _200
REMARK   86  A    between atoms: _205  and  _207
REMARK   87  A    between atoms: _207  and  _208
REMARK   88  A    between atoms: _207  and  _210
REMARK   89  A    between atoms: _213  and  _215
REMARK   90  A    between atoms: _215  and  _216
REMARK   91  A    between atoms: _215  and  _218
REMARK   92  A    between atoms: _218  and  _219
REMARK   93  A    between atoms: _224  and  _226
REMARK   94  A    between atoms: _226  and  _227
REMARK   95  A    between atoms: _226  and  _229
REMARK   96  A    between atoms: _229  and  _230
REMARK   97  A    between atoms: _233  and  _235
REMARK   98  A    between atoms: _235  and  _236
REMARK   99  A    between atoms: _235  and  _238
REMARK  100  A    between atoms: _238  and  _239
REMARK  101  A    between atoms: _242  and  _244
REMARK  102  A    between atoms: _244  and  _245
REMARK  103  A    between atoms: _247  and  _249
REMARK  104  A    between atoms: _249  and  _250
REMARK  105  A    between atoms: _249  and  _252
REMARK  106  A    between atoms: _252  and  _253
REMARK  107  A    between atoms: _253  and  _254
REMARK  108  A    between atoms: _254  and  _255
REMARK  109  A    between atoms: _264  and  _266
REMARK  110  A    between atoms: _266  and  _267
REMARK  111  A    between atoms: _266  and  _269
REMARK  112  A    between atoms: _269  and  _270
REMARK  113  A    between atoms: _275  and  _277
REMARK  114  A    between atoms: _277  and  _278
REMARK  115  A    between atoms: _277  and  _280
REMARK  116  A    between atoms: _280  and  _281
REMARK  117  A    between atoms: _281  and  _282
REMARK  118  A    between atoms: _282  and  _283
REMARK  119  A    between atoms: _292  and  _294
REMARK  120  A    between atoms: _294  and  _295
REMARK  121  A    between atoms: _294  and  _297
REMARK  122  A    between atoms: _297  and  _298
REMARK  123  A    between atoms: _301  and  _303
REMARK  124  A    between atoms: _303  and  _304
REMARK  125  A    between atoms: _303  and  _306
REMARK  126  A    between atoms: _306  and  _307
REMARK  127  A    between atoms: _310  and  _312
REMARK  128  A    between atoms: _312  and  _313
REMARK  129  A    between atoms: _312  and  _315
REMARK  130  A    between atoms: _315  and  _316
REMARK  131  A    between atoms: _319  and  _321
REMARK  132  A    between atoms: _321  and  _322
REMARK  133  A    between atoms: _321  and  _324
REMARK  134  A    between atoms: _324  and  _325
REMARK  135  A    between atoms: _328  and  _330
REMARK  136  A    between atoms: _330  and  _331
REMARK  137  A    between atoms: _333  and  _335
REMARK  138  A    between atoms: _335  and  _336
REMARK  139  A    between atoms: _339  and  _341
REMARK  140  A    between atoms: _341  and  _342
REMARK  141  A    between atoms: _341  and  _344
REMARK  142  A    between atoms: _344  and  _345
REMARK  143  A    between atoms: _348  and  _350
REMARK  144  A    between atoms: _350  and  _351
REMARK  145  A    between atoms: _350  and  _353
REMARK  146  A    between atoms: _353  and  _354
REMARK  147  A    between atoms: _357  and  _359
REMARK  148  A    between atoms: _359  and  _360
REMARK  149  A    between atoms: _359  and  _362
REMARK  150  A    between atoms: _362  and  _363
REMARK  151  A    between atoms: _366  and  _368
REMARK  152  A    between atoms: _368  and  _369
REMARK  153  A    between atoms: _368  and  _371
REMARK  154  A    between atoms: _374  and  _376
REMARK  155  A    between atoms: _376  and  _377
REMARK  156  A    between atoms: _376  and  _379
REMARK  157  A    between atoms: _379  and  _380
REMARK  158  A    between atoms: _380  and  _381
REMARK  159  A    between atoms: _381  and  _382
REMARK  160  A    between atoms: _382  and  _383
REMARK  161  A    between atoms: _387  and  _389
REMARK  162  A    between atoms: _389  and  _390
REMARK  163  A    between atoms: _389  and  _392
REMARK  164  A    between atoms: _392  and  _393
REMARK  165  A    between atoms: _393  and  _394
REMARK  166  A    between atoms: _396  and  _398
REMARK  167  A    between atoms: _398  and  _399
REMARK  168  A    between atoms: _398  and  _401
REMARK  169  A    between atoms: _401  and  _402
REMARK  170  A    between atoms: _405  and  _407
REMARK  171  A    between atoms: _407  and  _408
REMARK  172  A    between atoms: _410  and  _412
REMARK  173  A    between atoms: _412  and  _413
REMARK  174  A    between atoms: _415  and  _417
REMARK  175  A    between atoms: _417  and  _418
REMARK  176  A    between atoms: _417  and  _420
REMARK  177  A    between atoms: _423  and  _425
REMARK  178  A    between atoms: _425  and  _426
REMARK  179  A    between atoms: _428  and  _430
REMARK  180  A    between atoms: _430  and  _431
REMARK  181  A    between atoms: _433  and  _435
REMARK  182  A    between atoms: _435  and  _436
REMARK  183  A    between atoms: _435  and  _438
REMARK  184  A    between atoms: _438  and  _439
REMARK  185  A    between atoms: _445  and  _447
REMARK  186  A    between atoms: _447  and  _448
REMARK  187  A    between atoms: _447  and  _450
REMARK  188  A    between atoms: _450  and  _451
REMARK  189  A    between atoms: _454  and  _456
REMARK  190  A    between atoms: _456  and  _457
REMARK  191  A    between atoms: _456  and  _459
REMARK  192  A    between atoms: _459  and  _460
REMARK  193  A    between atoms: _463  and  _465
REMARK  194  A    between atoms: _465  and  _466
REMARK  195  A    between atoms: _465  and  _468
REMARK  196  A    between atoms: _468  and  _469
REMARK  197  A    between atoms: _473  and  _474
REMARK  198  A    between atoms: _479  and  _481
REMARK  199  A    between atoms: _481  and  _482
REMARK  200  A    between atoms: _481  and  _484
REMARK  201  A    between atoms: _487  and  _489
REMARK  202  A    between atoms: _489  and  _490
REMARK  203  A    between atoms: _489  and  _492
REMARK  204  A    between atoms: _492  and  _493
REMARK  205  A    between atoms: _498  and  _500
REMARK  206  A    between atoms: _500  and  _501
REMARK  207  A    between atoms: _500  and  _503
REMARK  208  A    between atoms: _503  and  _504
REMARK  209  A    between atoms: _507  and  _509
REMARK  210  A    between atoms: _509  and  _510
REMARK  211  A    between atoms: _509  and  _512
REMARK  212  A    between atoms: _512  and  _513
REMARK  213  A    between atoms: _516  and  _518
REMARK  214  A    between atoms: _518  and  _519
REMARK  215  A    between atoms: _521  and  _523
REMARK  216  A    between atoms: _523  and  _524
REMARK  217  A    between atoms: _523  and  _526
REMARK  218  A    between atoms: _526  and  _527
REMARK  219  A    between atoms: _527  and  _528
REMARK  220  A    between atoms: _528  and  _529
REMARK  221  A    between atoms: _538  and  _540
REMARK  222  A    between atoms: _540  and  _541
REMARK  223  A    between atoms: _540  and  _543
REMARK  224  A    between atoms: _543  and  _544
REMARK                            x       y       z     vdW  Elec       q    Type
REMARK                         _______ _______ _______ _____ _____    ______ ____
ROOT
ATOM      1  O   HOH     1      18.235  30.929  21.663  0.00  0.00    +0.000 OA
ENDROOT
TORSDOF 0
REMARK  Name = ../refined-set-2016/2qd6/2qd6_pocket.pdb
REMARK  224 active torsions:
REMARK  status: ('A' for Active; 'I' for Inactive)
REMARK    1  A    between atoms: _1  and  _3
REMARK    2  A    between atoms: _3  and  _4
REMARK    3  A    between atoms: _3  and  _6
REMARK    4  A    between atoms: _6  and  _7
REMARK    5  A    between atoms: _7  and  _8
REMARK    6  A    between atoms: _8  and  _9
REMARK    7  A    between atoms: _18  and  _20
REMARK    8  A    between atoms: _20  and  _21
REMARK    9  A    between atoms: _20  and  _23
REMARK   10  A    between atoms: _23  and  _24
REMARK   11  A    between atoms: _27  and  _29
REMARK   12  A    between atoms: _29  and  _30
REMARK   13  A    between atoms: _29  and  _32
REMARK   14  A    between atoms: _32  and  _33
REMARK   15  A    between atoms: _36  and  _38
REMARK   16  A    between atoms: _38  and  _39
REMARK   17  A    between atoms: _38  and  _41
REMARK   18  A    between atoms: _41  and  _42
REMARK   19  A    between atoms: _45  and  _47
REMARK   20  A    between atoms: _47  and  _48
REMARK   21  A    between atoms: _47  and  _50
REMARK   22  A    between atoms: _50  and  _51
REMARK   23  A    between atoms: _54  and  _56
REMARK   24  A    between atoms: _56  and  _57
REMARK   25  A    between atoms: _59  and  _61
REMARK   26  A    between atoms: _61  and  _62
REMARK   27  A    between atoms: _65  and  _67
REMARK   28  A    between atoms: _67  and  _68
REMARK   29  A    between atoms: _67  and  _70
REMARK   30  A    between atoms: _70  and  _71
REMARK   31  A    between atoms: _74  and  _76
REMARK   32  A    between atoms: _76  and  _77
REMARK   33  A    between atoms: _76  and  _79
REMARK   34  A    between atoms: _79  and  _80
REMARK   35  A    between atoms: _83  and  _85
REMARK   36  A    between atoms: _85  and  _86
REMARK   37  A    between atoms: _85  and  _88
REMARK   38  A    between atoms: _88  and  _89
REMARK   39  A    between atoms: _92  and  _94
REMARK   40  A    between atoms: _94  and  _95
REMARK   41  A    between atoms: _94  and  _97
REMARK   42  A    between atoms: _100  and  _102
REMARK   43  A    between atoms: _102  and  _103
REMARK   44  A    between atoms: _102  and  _105
REMARK   45  A    between atoms: _105  and  _106
REMARK   46  A    between atoms: _106  and  _107
REMARK   47  A    between atoms: _107  and  _108
REMARK   48  A    between atoms: _108  and  _109
REMARK   49  A    between atoms: _113  and  _115
REMARK   50  A    between atoms: _115  and  _116
REMARK   51  A    between atoms: _115  and  _118
REMARK   52  A    between atoms: _118  and  _119
REMARK   53  A    between atoms: _119  and  _120
REMARK   54  A    between atoms: _122  and  _124
REMARK   55  A    between atoms: _124  and  _125
REMARK   56  A    between atoms: _124  and  _127
REMARK   57  A    between atoms: _127  and  _128
REMARK   58  A    between atoms: _131  and  _133
REMARK   59  A    between atoms: _133  and  _134
REMARK   60  A    between atoms: _136  and  _138
REMARK   61  A    between atoms: _138  and  _139
REMARK   62  A    between atoms: _141  and  _143
REMARK   63  A    between atoms: _143  and  _144
REMARK   64  A    between atoms: _143  and  _146
REMARK   65  A    between atoms: _149  and  _151
REMARK   66  A    between atoms: _151  and  _152
REMARK   67  A    between atoms: _154  and  _156
REMARK   68  A    between atoms: _156  and  _157
REMARK   69  A    between atoms: _159  and  _161
REMARK   70  A    between atoms: _161  and  _162
REMARK   71  A    between atoms: _161  and  _164
REMARK   72  A    between atoms: _164  and  _165
REMARK   73  A    between atoms: _171  and  _173
REMARK   74  A    between atoms: _173  and  _174
REMARK   75  A    between atoms: _173  and  _176
REMARK   76  A    between atoms: _176  and  _177
REMARK   77  A    between atoms: _180  and  _182
REMARK   78  A    between atoms: _182  and  _183
REMARK   79  A    between atoms: _182  and  _185
REMARK   80  A    between atoms: _185  and  _186
REMARK   81  A    between atoms: _189  and  _191
REMARK   82  A    between atoms: _191  and  _192
REMARK   83  A    between atoms: _191  and  _194
REMARK   84  A    between atoms: _194  and  _195
REMARK   85  A    between atoms: _199  and  _200
REMARK   86  A    between atoms: _205  and  _207
REMARK   87  A    between atoms: _207  and  _208
REMARK   88  A    between atoms: _207  and  _210
REMARK   89  A    between atoms: _213  and  _215
REMARK   90  A    between atoms: _215  and  _216
REMARK   91  A    between atoms: _215  and  _218
REMARK   92  A    between atoms: _218  and  _219
REMARK   93  A    between atoms: _224  and  _226
REMARK   94  A    between atoms: _226  and  _227
REMARK   95  A    between atoms: _226  and  _229
REMARK   96  A    between atoms: _229  and  _230
REMARK   97  A    between atoms: _233  and  _235
REMARK   98  A    between atoms: _235  and  _236
REMARK   99  A    between atoms: _235  and  _238
REMARK  100  A    between atoms: _238  and  _239
REMARK  101  A    between atoms: _242  and  _244
REMARK  102  A    between atoms: _244  and  _245
REMARK  103  A    between atoms: _247  and  _249
REMARK  104  A    between atoms: _249  and  _250
REMARK  105  A    between atoms: _249  and  _252
REMARK  106  A    between atoms: _252  and  _253
REMARK  107  A    between atoms: _253  and  _254
REMARK  108  A    between atoms: _254  and  _255
REMARK  109  A    between atoms: _264  and  _266
REMARK  110  A    between atoms: _266  and  _267
REMARK  111  A    between atoms: _266  and  _269
REMARK  112  A    between atoms: _269  and  _270
REMARK  113  A    between atoms: _275  and  _277
REMARK  114  A    between atoms: _277  and  _278
REMARK  115  A    between atoms: _277  and  _280
REMARK  116  A    between atoms: _280  and  _281
REMARK  117  A    between atoms: _281  and  _282
REMARK  118  A    between atoms: _282  and  _283
REMARK  119  A    between atoms: _292  and  _294
REMARK  120  A    between atoms: _294  and  _295
REMARK  121  A    between atoms: _294  and  _297
REMARK  122  A    between atoms: _297  and  _298
REMARK  123  A    between atoms: _301  and  _303
REMARK  124  A    between atoms: _303  and  _304
REMARK  125  A    between atoms: _303  and  _306
REMARK  126  A    between atoms: _306  and  _307
REMARK  127  A    between atoms: _310  and  _312
REMARK  128  A    between atoms: _312  and  _313
REMARK  129  A    between atoms: _312  and  _315
REMARK  130  A    between atoms: _315  and  _316
REMARK  131  A    between atoms: _319  and  _321
REMARK  132  A    between atoms: _321  and  _322
REMARK  133  A    between atoms: _321  and  _324
REMARK  134  A    between atoms: _324  and  _325
REMARK  135  A    between atoms: _328  and  _330
REMARK  136  A    between atoms: _330  and  _331
REMARK  137  A    between atoms: _333  and  _335
REMARK  138  A    between atoms: _335  and  _336
REMARK  139  A    between atoms: _339  and  _341
REMARK  140  A    between atoms: _341  and  _342
REMARK  141  A    between atoms: _341  and  _344
REMARK  142  A    between atoms: _344  and  _345
REMARK  143  A    between atoms: _348  and  _350
REMARK  144  A    between atoms: _350  and  _351
REMARK  145  A    between atoms: _350  and  _353
REMARK  146  A    between atoms: _353  and  _354
REMARK  147  A    between atoms: _357  and  _359
REMARK  148  A    between atoms: _359  and  _360
REMARK  149  A    between atoms: _359  and  _362
REMARK  150  A    between atoms: _362  and  _363
REMARK  151  A    between atoms: _366  and  _368
REMARK  152  A    between atoms: _368  and  _369
REMARK  153  A    between atoms: _368  and  _371
REMARK  154  A    between atoms: _374  and  _376
REMARK  155  A    between atoms: _376  and  _377
REMARK  156  A    between atoms: _376  and  _379
REMARK  157  A    between atoms: _379  and  _380
REMARK  158  A    between atoms: _380  and  _381
REMARK  159  A    between atoms: _381  and  _382
REMARK  160  A    between atoms: _382  and  _383
REMARK  161  A    between atoms: _387  and  _389
REMARK  162  A    between atoms: _389  and  _390
REMARK  163  A    between atoms: _389  and  _392
REMARK  164  A    between atoms: _392  and  _393
REMARK  165  A    between atoms: _393  and  _394
REMARK  166  A    between atoms: _396  and  _398
REMARK  167  A    between atoms: _398  and  _399
REMARK  168  A    between atoms: _398  and  _401
REMARK  169  A    between atoms: _401  and  _402
REMARK  170  A    between atoms: _405  and  _407
REMARK  171  A    between atoms: _407  and  _408
REMARK  172  A    between atoms: _410  and  _412
REMARK  173  A    between atoms: _412  and  _413
REMARK  174  A    between atoms: _415  and  _417
REMARK  175  A    between atoms: _417  and  _418
REMARK  176  A    between atoms: _417  and  _420
REMARK  177  A    between atoms: _423  and  _425
REMARK  178  A    between atoms: _425  and  _426
REMARK  179  A    between atoms: _428  and  _430
REMARK  180  A    between atoms: _430  and  _431
REMARK  181  A    between atoms: _433  and  _435
REMARK  182  A    between atoms: _435  and  _436
REMARK  183  A    between atoms: _435  and  _438
REMARK  184  A    between atoms: _438  and  _439
REMARK  185  A    between atoms: _445  and  _447
REMARK  186  A    between atoms: _447  and  _448
REMARK  187  A    between atoms: _447  and  _450
REMARK  188  A    between atoms: _450  and  _451
REMARK  189  A    between atoms: _454  and  _456
REMARK  190  A    between atoms: _456  and  _457
REMARK  191  A    between atoms: _456  and  _459
REMARK  192  A    between atoms: _459  and  _460
REMARK  193  A    between atoms: _463  and  _465
REMARK  194  A    between atoms: _465  and  _466
REMARK  195  A    between atoms: _465  and  _468
REMARK  196  A    between atoms: _468  and  _469
REMARK  197  A    between atoms: _473  and  _474
REMARK  198  A    between atoms: _479  and  _481
REMARK  199  A    between atoms: _481  and  _482
REMARK  200  A    between atoms: _481  and  _484
REMARK  201  A    between atoms: _487  and  _489
REMARK  202  A    between atoms: _489  and  _490
REMARK  203  A    between atoms: _489  and  _492
REMARK  204  A    between atoms: _492  and  _493
REMARK  205  A    between atoms: _498  and  _500
REMARK  206  A    between atoms: _500  and  _501
REMARK  207  A    between atoms: _500  and  _503
REMARK  208  A    between atoms: _503  and  _504
REMARK  209  A    between atoms: _507  and  _509
REMARK  210  A    between atoms: _509  and  _510
REMARK  211  A    between atoms: _509  and  _512
REMARK  212  A    between atoms: _512  and  _513
REMARK  213  A    between atoms: _516  and  _518
REMARK  214  A    between atoms: _518  and  _519
REMARK  215  A    between atoms: _521  and  _523
REMARK  216  A    between atoms: _523  and  _524
REMARK  217  A    between atoms: _523  and  _526
REMARK  218  A    between atoms: _526  and  _527
REMARK  219  A    between atoms: _527  and  _528
REMARK  220  A    between atoms: _528  and  _529
REMARK  221  A    between atoms: _538  and  _540
REMARK  222  A    between atoms: _540  and  _541
REMARK  223  A    between atoms: _540  and  _543
REMARK  224  A    between atoms: _543  and  _544
REMARK                            x       y       z     vdW  Elec       q    Type
REMARK                         _______ _______ _______ _____ _____    ______ ____
ROOT
ATOM      1  O   HOH     1      20.766  33.838  10.803  0.00  0.00    +0.000 OA
ENDROOT
TORSDOF 0
REMARK  Name = ../refined-set-2016/2qd6/2qd6_pocket.pdb
REMARK  224 active torsions:
REMARK  status: ('A' for Active; 'I' for Inactive)
REMARK    1  A    between atoms: _1  and  _3
REMARK    2  A    between atoms: _3  and  _4
REMARK    3  A    between atoms: _3  and  _6
REMARK    4  A    between atoms: _6  and  _7
REMARK    5  A    between atoms: _7  and  _8
REMARK    6  A    between atoms: _8  and  _9
REMARK    7  A    between atoms: _18  and  _20
REMARK    8  A    between atoms: _20  and  _21
REMARK    9  A    between atoms: _20  and  _23
REMARK   10  A    between atoms: _23  and  _24
REMARK   11  A    between atoms: _27  and  _29
REMARK   12  A    between atoms: _29  and  _30
REMARK   13  A    between atoms: _29  and  _32
REMARK   14  A    between atoms: _32  and  _33
REMARK   15  A    between atoms: _36  and  _38
REMARK   16  A    between atoms: _38  and  _39
REMARK   17  A    between atoms: _38  and  _41
REMARK   18  A    between atoms: _41  and  _42
REMARK   19  A    between atoms: _45  and  _47
REMARK   20  A    between atoms: _47  and  _48
REMARK   21  A    between atoms: _47  and  _50
REMARK   22  A    between atoms: _50  and  _51
REMARK   23  A    between atoms: _54  and  _56
REMARK   24  A    between atoms: _56  and  _57
REMARK   25  A    between atoms: _59  and  _61
REMARK   26  A    between atoms: _61  and  _62
REMARK   27  A    between atoms: _65  and  _67
REMARK   28  A    between atoms: _67  and  _68
REMARK   29  A    between atoms: _67  and  _70
REMARK   30  A    between atoms: _70  and  _71
REMARK   31  A    between atoms: _74  and  _76
REMARK   32  A    between atoms: _76  and  _77
REMARK   33  A    between atoms: _76  and  _79
REMARK   34  A    between atoms: _79  and  _80
REMARK   35  A    between atoms: _83  and  _85
REMARK   36  A    between atoms: _85  and  _86
REMARK   37  A    between atoms: _85  and  _88
REMARK   38  A    between atoms: _88  and  _89
REMARK   39  A    between atoms: _92  and  _94
REMARK   40  A    between atoms: _94  and  _95
REMARK   41  A    between atoms: _94  and  _97
REMARK   42  A    between atoms: _100  and  _102
REMARK   43  A    between atoms: _102  and  _103
REMARK   44  A    between atoms: _102  and  _105
REMARK   45  A    between atoms: _105  and  _106
REMARK   46  A    between atoms: _106  and  _107
REMARK   47  A    between atoms: _107  and  _108
REMARK   48  A    between atoms: _108  and  _109
REMARK   49  A    between atoms: _113  and  _115
REMARK   50  A    between atoms: _115  and  _116
REMARK   51  A    between atoms: _115  and  _118
REMARK   52  A    between atoms: _118  and  _119
REMARK   53  A    between atoms: _119  and  _120
REMARK   54  A    between atoms: _122  and  _124
REMARK   55  A    between atoms: _124  and  _125
REMARK   56  A    between atoms: _124  and  _127
REMARK   57  A    between atoms: _127  and  _128
REMARK   58  A    between atoms: _131  and  _133
REMARK   59  A    between atoms: _133  and  _134
REMARK   60  A    between atoms: _136  and  _138
REMARK   61  A    between atoms: _138  and  _139
REMARK   62  A    between atoms: _141  and  _143
REMARK   63  A    between atoms: _143  and  _144
REMARK   64  A    between atoms: _143  and  _146
REMARK   65  A    between atoms: _149  and  _151
REMARK   66  A    between atoms: _151  and  _152
REMARK   67  A    between atoms: _154  and  _156
REMARK   68  A    between atoms: _156  and  _157
REMARK   69  A    between atoms: _159  and  _161
REMARK   70  A    between atoms: _161  and  _162
REMARK   71  A    between atoms: _161  and  _164
REMARK   72  A    between atoms: _164  and  _165
REMARK   73  A    between atoms: _171  and  _173
REMARK   74  A    between atoms: _173  and  _174
REMARK   75  A    between atoms: _173  and  _176
REMARK   76  A    between atoms: _176  and  _177
REMARK   77  A    between atoms: _180  and  _182
REMARK   78  A    between atoms: _182  and  _183
REMARK   79  A    between atoms: _182  and  _185
REMARK   80  A    between atoms: _185  and  _186
REMARK   81  A    between atoms: _189  and  _191
REMARK   82  A    between atoms: _191  and  _192
REMARK   83  A    between atoms: _191  and  _194
REMARK   84  A    between atoms: _194  and  _195
REMARK   85  A    between atoms: _199  and  _200
REMARK   86  A    between atoms: _205  and  _207
REMARK   87  A    between atoms: _207  and  _208
REMARK   88  A    between atoms: _207  and  _210
REMARK   89  A    between atoms: _213  and  _215
REMARK   90  A    between atoms: _215  and  _216
REMARK   91  A    between atoms: _215  and  _218
REMARK   92  A    between atoms: _218  and  _219
REMARK   93  A    between atoms: _224  and  _226
REMARK   94  A    between atoms: _226  and  _227
REMARK   95  A    between atoms: _226  and  _229
REMARK   96  A    between atoms: _229  and  _230
REMARK   97  A    between atoms: _233  and  _235
REMARK   98  A    between atoms: _235  and  _236
REMARK   99  A    between atoms: _235  and  _238
REMARK  100  A    between atoms: _238  and  _239
REMARK  101  A    between atoms: _242  and  _244
REMARK  102  A    between atoms: _244  and  _245
REMARK  103  A    between atoms: _247  and  _249
REMARK  104  A    between atoms: _249  and  _250
REMARK  105  A    between atoms: _249  and  _252
REMARK  106  A    between atoms: _252  and  _253
REMARK  107  A    between atoms: _253  and  _254
REMARK  108  A    between atoms: _254  and  _255
REMARK  109  A    between atoms: _264  and  _266
REMARK  110  A    between atoms: _266  and  _267
REMARK  111  A    between atoms: _266  and  _269
REMARK  112  A    between atoms: _269  and  _270
REMARK  113  A    between atoms: _275  and  _277
REMARK  114  A    between atoms: _277  and  _278
REMARK  115  A    between atoms: _277  and  _280
REMARK  116  A    between atoms: _280  and  _281
REMARK  117  A    between atoms: _281  and  _282
REMARK  118  A    between atoms: _282  and  _283
REMARK  119  A    between atoms: _292  and  _294
REMARK  120  A    between atoms: _294  and  _295
REMARK  121  A    between atoms: _294  and  _297
REMARK  122  A    between atoms: _297  and  _298
REMARK  123  A    between atoms: _301  and  _303
REMARK  124  A    between atoms: _303  and  _304
REMARK  125  A    between atoms: _303  and  _306
REMARK  126  A    between atoms: _306  and  _307
REMARK  127  A    between atoms: _310  and  _312
REMARK  128  A    between atoms: _312  and  _313
REMARK  129  A    between atoms: _312  and  _315
REMARK  130  A    between atoms: _315  and  _316
REMARK  131  A    between atoms: _319  and  _321
REMARK  132  A    between atoms: _321  and  _322
REMARK  133  A    between atoms: _321  and  _324
REMARK  134  A    between atoms: _324  and  _325
REMARK  135  A    between atoms: _328  and  _330
REMARK  136  A    between atoms: _330  and  _331
REMARK  137  A    between atoms: _333  and  _335
REMARK  138  A    between atoms: _335  and  _336
REMARK  139  A    between atoms: _339  and  _341
REMARK  140  A    between atoms: _341  and  _342
REMARK  141  A    between atoms: _341  and  _344
REMARK  142  A    between atoms: _344  and  _345
REMARK  143  A    between atoms: _348  and  _350
REMARK  144  A    between atoms: _350  and  _351
REMARK  145  A    between atoms: _350  and  _353
REMARK  146  A    between atoms: _353  and  _354
REMARK  147  A    between atoms: _357  and  _359
REMARK  148  A    between atoms: _359  and  _360
REMARK  149  A    between atoms: _359  and  _362
REMARK  150  A    between atoms: _362  and  _363
REMARK  151  A    between atoms: _366  and  _368
REMARK  152  A    between atoms: _368  and  _369
REMARK  153  A    between atoms: _368  and  _371
REMARK  154  A    between atoms: _374  and  _376
REMARK  155  A    between atoms: _376  and  _377
REMARK  156  A    between atoms: _376  and  _379
REMARK  157  A    between atoms: _379  and  _380
REMARK  158  A    between atoms: _380  and  _381
REMARK  159  A    between atoms: _381  and  _382
REMARK  160  A    between atoms: _382  and  _383
REMARK  161  A    between atoms: _387  and  _389
REMARK  162  A    between atoms: _389  and  _390
REMARK  163  A    between atoms: _389  and  _392
REMARK  164  A    between atoms: _392  and  _393
REMARK  165  A    between atoms: _393  and  _394
REMARK  166  A    between atoms: _396  and  _398
REMARK  167  A    between atoms: _398  and  _399
REMARK  168  A    between atoms: _398  and  _401
REMARK  169  A    between atoms: _401  and  _402
REMARK  170  A    between atoms: _405  and  _407
REMARK  171  A    between atoms: _407  and  _408
REMARK  172  A    between atoms: _410  and  _412
REMARK  173  A    between atoms: _412  and  _413
REMARK  174  A    between atoms: _415  and  _417
REMARK  175  A    between atoms: _417  and  _418
REMARK  176  A    between atoms: _417  and  _420
REMARK  177  A    between atoms: _423  and  _425
REMARK  178  A    between atoms: _425  and  _426
REMARK  179  A    between atoms: _428  and  _430
REMARK  180  A    between atoms: _430  and  _431
REMARK  181  A    between atoms: _433  and  _435
REMARK  182  A    between atoms: _435  and  _436
REMARK  183  A    between atoms: _435  and  _438
REMARK  184  A    between atoms: _438  and  _439
REMARK  185  A    between atoms: _445  and  _447
REMARK  186  A    between atoms: _447  and  _448
REMARK  187  A    between atoms: _447  and  _450
REMARK  188  A    between atoms: _450  and  _451
REMARK  189  A    between atoms: _454  and  _456
REMARK  190  A    between atoms: _456  and  _457
REMARK  191  A    between atoms: _456  and  _459
REMARK  192  A    between atoms: _459  and  _460
REMARK  193  A    between atoms: _463  and  _465
REMARK  194  A    between atoms: _465  and  _466
REMARK  195  A    between atoms: _465  and  _468
REMARK  196  A    between atoms: _468  and  _469
REMARK  197  A    between atoms: _473  and  _474
REMARK  198  A    between atoms: _479  and  _481
REMARK  199  A    between atoms: _481  and  _482
REMARK  200  A    between atoms: _481  and  _484
REMARK  201  A    between atoms: _487  and  _489
REMARK  202  A    between atoms: _489  and  _490
REMARK  203  A    between atoms: _489  and  _492
REMARK  204  A    between atoms: _492  and  _493
REMARK  205  A    between atoms: _498  and  _500
REMARK  206  A    between atoms: _500  and  _501
REMARK  207  A    between atoms: _500  and  _503
REMARK  208  A    between atoms: _503  and  _504
REMARK  209  A    between atoms: _507  and  _509
REMARK  210  A    between atoms: _509  and  _510
REMARK  211  A    between atoms: _509  and  _512
REMARK  212  A    between atoms: _512  and  _513
REMARK  213  A    between atoms: _516  and  _518
REMARK  214  A    between atoms: _518  and  _519
REMARK  215  A    between atoms: _521  and  _523
REMARK  216  A    between atoms: _523  and  _524
REMARK  217  A    between atoms: _523  and  _526
REMARK  218  A    between atoms: _526  and  _527
REMARK  219  A    between atoms: _527  and  _528
REMARK  220  A    between atoms: _528  and  _529
REMARK  221  A    between atoms: _538  and  _540
REMARK  222  A    between atoms: _540  and  _541
REMARK  223  A    between atoms: _540  and  _543
REMARK  224  A    between atoms: _543  and  _544
REMARK                            x       y       z     vdW  Elec       q    Type
REMARK                         _______ _______ _______ _____ _____    ______ ____
ROOT
ATOM      1  O   HOH     1      21.250  35.696  17.491  0.00  0.00    +0.000 OA
ENDROOT
TORSDOF 0
REMARK  Name = ../refined-set-2016/2qd6/2qd6_pocket.pdb
REMARK  224 active torsions:
REMARK  status: ('A' for Active; 'I' for Inactive)
REMARK    1  A    between atoms: _1  and  _3
REMARK    2  A    between atoms: _3  and  _4
REMARK    3  A    between atoms: _3  and  _6
REMARK    4  A    between atoms: _6  and  _7
REMARK    5  A    between atoms: _7  and  _8
REMARK    6  A    between atoms: _8  and  _9
REMARK    7  A    between atoms: _18  and  _20
REMARK    8  A    between atoms: _20  and  _21
REMARK    9  A    between atoms: _20  and  _23
REMARK   10  A    between atoms: _23  and  _24
REMARK   11  A    between atoms: _27  and  _29
REMARK   12  A    between atoms: _29  and  _30
REMARK   13  A    between atoms: _29  and  _32
REMARK   14  A    between atoms: _32  and  _33
REMARK   15  A    between atoms: _36  and  _38
REMARK   16  A    between atoms: _38  and  _39
REMARK   17  A    between atoms: _38  and  _41
REMARK   18  A    between atoms: _41  and  _42
REMARK   19  A    between atoms: _45  and  _47
REMARK   20  A    between atoms: _47  and  _48
REMARK   21  A    between atoms: _47  and  _50
REMARK   22  A    between atoms: _50  and  _51
REMARK   23  A    between atoms: _54  and  _56
REMARK   24  A    between atoms: _56  and  _57
REMARK   25  A    between atoms: _59  and  _61
REMARK   26  A    between atoms: _61  and  _62
REMARK   27  A    between atoms: _65  and  _67
REMARK   28  A    between atoms: _67  and  _68
REMARK   29  A    between atoms: _67  and  _70
REMARK   30  A    between atoms: _70  and  _71
REMARK   31  A    between atoms: _74  and  _76
REMARK   32  A    between atoms: _76  and  _77
REMARK   33  A    between atoms: _76  and  _79
REMARK   34  A    between atoms: _79  and  _80
REMARK   35  A    between atoms: _83  and  _85
REMARK   36  A    between atoms: _85  and  _86
REMARK   37  A    between atoms: _85  and  _88
REMARK   38  A    between atoms: _88  and  _89
REMARK   39  A    between atoms: _92  and  _94
REMARK   40  A    between atoms: _94  and  _95
REMARK   41  A    between atoms: _94  and  _97
REMARK   42  A    between atoms: _100  and  _102
REMARK   43  A    between atoms: _102  and  _103
REMARK   44  A    between atoms: _102  and  _105
REMARK   45  A    between atoms: _105  and  _106
REMARK   46  A    between atoms: _106  and  _107
REMARK   47  A    between atoms: _107  and  _108
REMARK   48  A    between atoms: _108  and  _109
REMARK   49  A    between atoms: _113  and  _115
REMARK   50  A    between atoms: _115  and  _116
REMARK   51  A    between atoms: _115  and  _118
REMARK   52  A    between atoms: _118  and  _119
REMARK   53  A    between atoms: _119  and  _120
REMARK   54  A    between atoms: _122  and  _124
REMARK   55  A    between atoms: _124  and  _125
REMARK   56  A    between atoms: _124  and  _127
REMARK   57  A    between atoms: _127  and  _128
REMARK   58  A    between atoms: _131  and  _133
REMARK   59  A    between atoms: _133  and  _134
REMARK   60  A    between atoms: _136  and  _138
REMARK   61  A    between atoms: _138  and  _139
REMARK   62  A    between atoms: _141  and  _143
REMARK   63  A    between atoms: _143  and  _144
REMARK   64  A    between atoms: _143  and  _146
REMARK   65  A    between atoms: _149  and  _151
REMARK   66  A    between atoms: _151  and  _152
REMARK   67  A    between atoms: _154  and  _156
REMARK   68  A    between atoms: _156  and  _157
REMARK   69  A    between atoms: _159  and  _161
REMARK   70  A    between atoms: _161  and  _162
REMARK   71  A    between atoms: _161  and  _164
REMARK   72  A    between atoms: _164  and  _165
REMARK   73  A    between atoms: _171  and  _173
REMARK   74  A    between atoms: _173  and  _174
REMARK   75  A    between atoms: _173  and  _176
REMARK   76  A    between atoms: _176  and  _177
REMARK   77  A    between atoms: _180  and  _182
REMARK   78  A    between atoms: _182  and  _183
REMARK   79  A    between atoms: _182  and  _185
REMARK   80  A    between atoms: _185  and  _186
REMARK   81  A    between atoms: _189  and  _191
REMARK   82  A    between atoms: _191  and  _192
REMARK   83  A    between atoms: _191  and  _194
REMARK   84  A    between atoms: _194  and  _195
REMARK   85  A    between atoms: _199  and  _200
REMARK   86  A    between atoms: _205  and  _207
REMARK   87  A    between atoms: _207  and  _208
REMARK   88  A    between atoms: _207  and  _210
REMARK   89  A    between atoms: _213  and  _215
REMARK   90  A    between atoms: _215  and  _216
REMARK   91  A    between atoms: _215  and  _218
REMARK   92  A    between atoms: _218  and  _219
REMARK   93  A    between atoms: _224  and  _226
REMARK   94  A    between atoms: _226  and  _227
REMARK   95  A    between atoms: _226  and  _229
REMARK   96  A    between atoms: _229  and  _230
REMARK   97  A    between atoms: _233  and  _235
REMARK   98  A    between atoms: _235  and  _236
REMARK   99  A    between atoms: _235  and  _238
REMARK  100  A    between atoms: _238  and  _239
REMARK  101  A    between atoms: _242  and  _244
REMARK  102  A    between atoms: _244  and  _245
REMARK  103  A    between atoms: _247  and  _249
REMARK  104  A    between atoms: _249  and  _250
REMARK  105  A    between atoms: _249  and  _252
REMARK  106  A    between atoms: _252  and  _253
REMARK  107  A    between atoms: _253  and  _254
REMARK  108  A    between atoms: _254  and  _255
REMARK  109  A    between atoms: _264  and  _266
REMARK  110  A    between atoms: _266  and  _267
REMARK  111  A    between atoms: _266  and  _269
REMARK  112  A    between atoms: _269  and  _270
REMARK  113  A    between atoms: _275  and  _277
REMARK  114  A    between atoms: _277  and  _278
REMARK  115  A    between atoms: _277  and  _280
REMARK  116  A    between atoms: _280  and  _281
REMARK  117  A    between atoms: _281  and  _282
REMARK  118  A    between atoms: _282  and  _283
REMARK  119  A    between atoms: _292  and  _294
REMARK  120  A    between atoms: _294  and  _295
REMARK  121  A    between atoms: _294  and  _297
REMARK  122  A    between atoms: _297  and  _298
REMARK  123  A    between atoms: _301  and  _303
REMARK  124  A    between atoms: _303  and  _304
REMARK  125  A    between atoms: _303  and  _306
REMARK  126  A    between atoms: _306  and  _307
REMARK  127  A    between atoms: _310  and  _312
REMARK  128  A    between atoms: _312  and  _313
REMARK  129  A    between atoms: _312  and  _315
REMARK  130  A    between atoms: _315  and  _316
REMARK  131  A    between atoms: _319  and  _321
REMARK  132  A    between atoms: _321  and  _322
REMARK  133  A    between atoms: _321  and  _324
REMARK  134  A    between atoms: _324  and  _325
REMARK  135  A    between atoms: _328  and  _330
REMARK  136  A    between atoms: _330  and  _331
REMARK  137  A    between atoms: _333  and  _335
REMARK  138  A    between atoms: _335  and  _336
REMARK  139  A    between atoms: _339  and  _341
REMARK  140  A    between atoms: _341  and  _342
REMARK  141  A    between atoms: _341  and  _344
REMARK  142  A    between atoms: _344  and  _345
REMARK  143  A    between atoms: _348  and  _350
REMARK  144  A    between atoms: _350  and  _351
REMARK  145  A    between atoms: _350  and  _353
REMARK  146  A    between atoms: _353  and  _354
REMARK  147  A    between atoms: _357  and  _359
REMARK  148  A    between atoms: _359  and  _360
REMARK  149  A    between atoms: _359  and  _362
REMARK  150  A    between atoms: _362  and  _363
REMARK  151  A    between atoms: _366  and  _368
REMARK  152  A    between atoms: _368  and  _369
REMARK  153  A    between atoms: _368  and  _371
REMARK  154  A    between atoms: _374  and  _376
REMARK  155  A    between atoms: _376  and  _377
REMARK  156  A    between atoms: _376  and  _379
REMARK  157  A    between atoms: _379  and  _380
REMARK  158  A    between atoms: _380  and  _381
REMARK  159  A    between atoms: _381  and  _382
REMARK  160  A    between atoms: _382  and  _383
REMARK  161  A    between atoms: _387  and  _389
REMARK  162  A    between atoms: _389  and  _390
REMARK  163  A    between atoms: _389  and  _392
REMARK  164  A    between atoms: _392  and  _393
REMARK  165  A    between atoms: _393  and  _394
REMARK  166  A    between atoms: _396  and  _398
REMARK  167  A    between atoms: _398  and  _399
REMARK  168  A    between atoms: _398  and  _401
REMARK  169  A    between atoms: _401  and  _402
REMARK  170  A    between atoms: _405  and  _407
REMARK  171  A    between atoms: _407  and  _408
REMARK  172  A    between atoms: _410  and  _412
REMARK  173  A    between atoms: _412  and  _413
REMARK  174  A    between atoms: _415  and  _417
REMARK  175  A    between atoms: _417  and  _418
REMARK  176  A    between atoms: _417  and  _420
REMARK  177  A    between atoms: _423  and  _425
REMARK  178  A    between atoms: _425  and  _426
REMARK  179  A    between atoms: _428  and  _430
REMARK  180  A    between atoms: _430  and  _431
REMARK  181  A    between atoms: _433  and  _435
REMARK  182  A    between atoms: _435  and  _436
REMARK  183  A    between atoms: _435  and  _438
REMARK  184  A    between atoms: _438  and  _439
REMARK  185  A    between atoms: _445  and  _447
REMARK  186  A    between atoms: _447  and  _448
REMARK  187  A    between atoms: _447  and  _450
REMARK  188  A    between atoms: _450  and  _451
REMARK  189  A    between atoms: _454  and  _456
REMARK  190  A    between atoms: _456  and  _457
REMARK  191  A    between atoms: _456  and  _459
REMARK  192  A    between atoms: _459  and  _460
REMARK  193  A    between atoms: _463  and  _465
REMARK  194  A    between atoms: _465  and  _466
REMARK  195  A    between atoms: _465  and  _468
REMARK  196  A    between atoms: _468  and  _469
REMARK  197  A    between atoms: _473  and  _474
REMARK  198  A    between atoms: _479  and  _481
REMARK  199  A    between atoms: _481  and  _482
REMARK  200  A    between atoms: _481  and  _484
REMARK  201  A    between atoms: _487  and  _489
REMARK  202  A    between atoms: _489  and  _490
REMARK  203  A    between atoms: _489  and  _492
REMARK  204  A    between atoms: _492  and  _493
REMARK  205  A    between atoms: _498  and  _500
REMARK  206  A    between atoms: _500  and  _501
REMARK  207  A    between atoms: _500  and  _503
REMARK  208  A    between atoms: _503  and  _504
REMARK  209  A    between atoms: _507  and  _509
REMARK  210  A    between atoms: _509  and  _510
REMARK  211  A    between atoms: _509  and  _512
REMARK  212  A    between atoms: _512  and  _513
REMARK  213  A    between atoms: _516  and  _518
REMARK  214  A    between atoms: _518  and  _519
REMARK  215  A    between atoms: _521  and  _523
REMARK  216  A    between atoms: _523  and  _524
REMARK  217  A    between atoms: _523  and  _526
REMARK  218  A    between atoms: _526  and  _527
REMARK  219  A    between atoms: _527  and  _528
REMARK  220  A    between atoms: _528  and  _529
REMARK  221  A    between atoms: _538  and  _540
REMARK  222  A    between atoms: _540  and  _541
REMARK  223  A    between atoms: _540  and  _543
REMARK  224  A    between atoms: _543  and  _544
REMARK                            x       y       z     vdW  Elec       q    Type
REMARK                         _______ _______ _______ _____ _____    ______ ____
ROOT
ATOM      1  O   HOH     1      25.875  26.031  16.147  0.00  0.00    +0.000 OA
ENDROOT
TORSDOF 0
REMARK  Name = ../refined-set-2016/2qd6/2qd6_pocket.pdb
REMARK  224 active torsions:
REMARK  status: ('A' for Active; 'I' for Inactive)
REMARK    1  A    between atoms: _1  and  _3
REMARK    2  A    between atoms: _3  and  _4
REMARK    3  A    between atoms: _3  and  _6
REMARK    4  A    between atoms: _6  and  _7
REMARK    5  A    between atoms: _7  and  _8
REMARK    6  A    between atoms: _8  and  _9
REMARK    7  A    between atoms: _18  and  _20
REMARK    8  A    between atoms: _20  and  _21
REMARK    9  A    between atoms: _20  and  _23
REMARK   10  A    between atoms: _23  and  _24
REMARK   11  A    between atoms: _27  and  _29
REMARK   12  A    between atoms: _29  and  _30
REMARK   13  A    between atoms: _29  and  _32
REMARK   14  A    between atoms: _32  and  _33
REMARK   15  A    between atoms: _36  and  _38
REMARK   16  A    between atoms: _38  and  _39
REMARK   17  A    between atoms: _38  and  _41
REMARK   18  A    between atoms: _41  and  _42
REMARK   19  A    between atoms: _45  and  _47
REMARK   20  A    between atoms: _47  and  _48
REMARK   21  A    between atoms: _47  and  _50
REMARK   22  A    between atoms: _50  and  _51
REMARK   23  A    between atoms: _54  and  _56
REMARK   24  A    between atoms: _56  and  _57
REMARK   25  A    between atoms: _59  and  _61
REMARK   26  A    between atoms: _61  and  _62
REMARK   27  A    between atoms: _65  and  _67
REMARK   28  A    between atoms: _67  and  _68
REMARK   29  A    between atoms: _67  and  _70
REMARK   30  A    between atoms: _70  and  _71
REMARK   31  A    between atoms: _74  and  _76
REMARK   32  A    between atoms: _76  and  _77
REMARK   33  A    between atoms: _76  and  _79
REMARK   34  A    between atoms: _79  and  _80
REMARK   35  A    between atoms: _83  and  _85
REMARK   36  A    between atoms: _85  and  _86
REMARK   37  A    between atoms: _85  and  _88
REMARK   38  A    between atoms: _88  and  _89
REMARK   39  A    between atoms: _92  and  _94
REMARK   40  A    between atoms: _94  and  _95
REMARK   41  A    between atoms: _94  and  _97
REMARK   42  A    between atoms: _100  and  _102
REMARK   43  A    between atoms: _102  and  _103
REMARK   44  A    between atoms: _102  and  _105
REMARK   45  A    between atoms: _105  and  _106
REMARK   46  A    between atoms: _106  and  _107
REMARK   47  A    between atoms: _107  and  _108
REMARK   48  A    between atoms: _108  and  _109
REMARK   49  A    between atoms: _113  and  _115
REMARK   50  A    between atoms: _115  and  _116
REMARK   51  A    between atoms: _115  and  _118
REMARK   52  A    between atoms: _118  and  _119
REMARK   53  A    between atoms: _119  and  _120
REMARK   54  A    between atoms: _122  and  _124
REMARK   55  A    between atoms: _124  and  _125
REMARK   56  A    between atoms: _124  and  _127
REMARK   57  A    between atoms: _127  and  _128
REMARK   58  A    between atoms: _131  and  _133
REMARK   59  A    between atoms: _133  and  _134
REMARK   60  A    between atoms: _136  and  _138
REMARK   61  A    between atoms: _138  and  _139
REMARK   62  A    between atoms: _141  and  _143
REMARK   63  A    between atoms: _143  and  _144
REMARK   64  A    between atoms: _143  and  _146
REMARK   65  A    between atoms: _149  and  _151
REMARK   66  A    between atoms: _151  and  _152
REMARK   67  A    between atoms: _154  and  _156
REMARK   68  A    between atoms: _156  and  _157
REMARK   69  A    between atoms: _159  and  _161
REMARK   70  A    between atoms: _161  and  _162
REMARK   71  A    between atoms: _161  and  _164
REMARK   72  A    between atoms: _164  and  _165
REMARK   73  A    between atoms: _171  and  _173
REMARK   74  A    between atoms: _173  and  _174
REMARK   75  A    between atoms: _173  and  _176
REMARK   76  A    between atoms: _176  and  _177
REMARK   77  A    between atoms: _180  and  _182
REMARK   78  A    between atoms: _182  and  _183
REMARK   79  A    between atoms: _182  and  _185
REMARK   80  A    between atoms: _185  and  _186
REMARK   81  A    between atoms: _189  and  _191
REMARK   82  A    between atoms: _191  and  _192
REMARK   83  A    between atoms: _191  and  _194
REMARK   84  A    between atoms: _194  and  _195
REMARK   85  A    between atoms: _199  and  _200
REMARK   86  A    between atoms: _205  and  _207
REMARK   87  A    between atoms: _207  and  _208
REMARK   88  A    between atoms: _207  and  _210
REMARK   89  A    between atoms: _213  and  _215
REMARK   90  A    between atoms: _215  and  _216
REMARK   91  A    between atoms: _215  and  _218
REMARK   92  A    between atoms: _218  and  _219
REMARK   93  A    between atoms: _224  and  _226
REMARK   94  A    between atoms: _226  and  _227
REMARK   95  A    between atoms: _226  and  _229
REMARK   96  A    between atoms: _229  and  _230
REMARK   97  A    between atoms: _233  and  _235
REMARK   98  A    between atoms: _235  and  _236
REMARK   99  A    between atoms: _235  and  _238
REMARK  100  A    between atoms: _238  and  _239
REMARK  101  A    between atoms: _242  and  _244
REMARK  102  A    between atoms: _244  and  _245
REMARK  103  A    between atoms: _247  and  _249
REMARK  104  A    between atoms: _249  and  _250
REMARK  105  A    between atoms: _249  and  _252
REMARK  106  A    between atoms: _252  and  _253
REMARK  107  A    between atoms: _253  and  _254
REMARK  108  A    between atoms: _254  and  _255
REMARK  109  A    between atoms: _264  and  _266
REMARK  110  A    between atoms: _266  and  _267
REMARK  111  A    between atoms: _266  and  _269
REMARK  112  A    between atoms: _269  and  _270
REMARK  113  A    between atoms: _275  and  _277
REMARK  114  A    between atoms: _277  and  _278
REMARK  115  A    between atoms: _277  and  _280
REMARK  116  A    between atoms: _280  and  _281
REMARK  117  A    between atoms: _281  and  _282
REMARK  118  A    between atoms: _282  and  _283
REMARK  119  A    between atoms: _292  and  _294
REMARK  120  A    between atoms: _294  and  _295
REMARK  121  A    between atoms: _294  and  _297
REMARK  122  A    between atoms: _297  and  _298
REMARK  123  A    between atoms: _301  and  _303
REMARK  124  A    between atoms: _303  and  _304
REMARK  125  A    between atoms: _303  and  _306
REMARK  126  A    between atoms: _306  and  _307
REMARK  127  A    between atoms: _310  and  _312
REMARK  128  A    between atoms: _312  and  _313
REMARK  129  A    between atoms: _312  and  _315
REMARK  130  A    between atoms: _315  and  _316
REMARK  131  A    between atoms: _319  and  _321
REMARK  132  A    between atoms: _321  and  _322
REMARK  133  A    between atoms: _321  and  _324
REMARK  134  A    between atoms: _324  and  _325
REMARK  135  A    between atoms: _328  and  _330
REMARK  136  A    between atoms: _330  and  _331
REMARK  137  A    between atoms: _333  and  _335
REMARK  138  A    between atoms: _335  and  _336
REMARK  139  A    between atoms: _339  and  _341
REMARK  140  A    between atoms: _341  and  _342
REMARK  141  A    between atoms: _341  and  _344
REMARK  142  A    between atoms: _344  and  _345
REMARK  143  A    between atoms: _348  and  _350
REMARK  144  A    between atoms: _350  and  _351
REMARK  145  A    between atoms: _350  and  _353
REMARK  146  A    between atoms: _353  and  _354
REMARK  147  A    between atoms: _357  and  _359
REMARK  148  A    between atoms: _359  and  _360
REMARK  149  A    between atoms: _359  and  _362
REMARK  150  A    between atoms: _362  and  _363
REMARK  151  A    between atoms: _366  and  _368
REMARK  152  A    between atoms: _368  and  _369
REMARK  153  A    between atoms: _368  and  _371
REMARK  154  A    between atoms: _374  and  _376
REMARK  155  A    between atoms: _376  and  _377
REMARK  156  A    between atoms: _376  and  _379
REMARK  157  A    between atoms: _379  and  _380
REMARK  158  A    between atoms: _380  and  _381
REMARK  159  A    between atoms: _381  and  _382
REMARK  160  A    between atoms: _382  and  _383
REMARK  161  A    between atoms: _387  and  _389
REMARK  162  A    between atoms: _389  and  _390
REMARK  163  A    between atoms: _389  and  _392
REMARK  164  A    between atoms: _392  and  _393
REMARK  165  A    between atoms: _393  and  _394
REMARK  166  A    between atoms: _396  and  _398
REMARK  167  A    between atoms: _398  and  _399
REMARK  168  A    between atoms: _398  and  _401
REMARK  169  A    between atoms: _401  and  _402
REMARK  170  A    between atoms: _405  and  _407
REMARK  171  A    between atoms: _407  and  _408
REMARK  172  A    between atoms: _410  and  _412
REMARK  173  A    between atoms: _412  and  _413
REMARK  174  A    between atoms: _415  and  _417
REMARK  175  A    between atoms: _417  and  _418
REMARK  176  A    between atoms: _417  and  _420
REMARK  177  A    between atoms: _423  and  _425
REMARK  178  A    between atoms: _425  and  _426
REMARK  179  A    between atoms: _428  and  _430
REMARK  180  A    between atoms: _430  and  _431
REMARK  181  A    between atoms: _433  and  _435
REMARK  182  A    between atoms: _435  and  _436
REMARK  183  A    between atoms: _435  and  _438
REMARK  184  A    between atoms: _438  and  _439
REMARK  185  A    between atoms: _445  and  _447
REMARK  186  A    between atoms: _447  and  _448
REMARK  187  A    between atoms: _447  and  _450
REMARK  188  A    between atoms: _450  and  _451
REMARK  189  A    between atoms: _454  and  _456
REMARK  190  A    between atoms: _456  and  _457
REMARK  191  A    between atoms: _456  and  _459
REMARK  192  A    between atoms: _459  and  _460
REMARK  193  A    between atoms: _463  and  _465
REMARK  194  A    between atoms: _465  and  _466
REMARK  195  A    between atoms: _465  and  _468
REMARK  196  A    between atoms: _468  and  _469
REMARK  197  A    between atoms: _473  and  _474
REMARK  198  A    between atoms: _479  and  _481
REMARK  199  A    between atoms: _481  and  _482
REMARK  200  A    between atoms: _481  and  _484
REMARK  201  A    between atoms: _487  and  _489
REMARK  202  A    between atoms: _489  and  _490
REMARK  203  A    between atoms: _489  and  _492
REMARK  204  A    between atoms: _492  and  _493
REMARK  205  A    between atoms: _498  and  _500
REMARK  206  A    between atoms: _500  and  _501
REMARK  207  A    between atoms: _500  and  _503
REMARK  208  A    between atoms: _503  and  _504
REMARK  209  A    between atoms: _507  and  _509
REMARK  210  A    between atoms: _509  and  _510
REMARK  211  A    between atoms: _509  and  _512
REMARK  212  A    between atoms: _512  and  _513
REMARK  213  A    between atoms: _516  and  _518
REMARK  214  A    between atoms: _518  and  _519
REMARK  215  A    between atoms: _521  and  _523
REMARK  216  A    between atoms: _523  and  _524
REMARK  217  A    between atoms: _523  and  _526
REMARK  218  A    between atoms: _526  and  _527
REMARK  219  A    between atoms: _527  and  _528
REMARK  220  A    between atoms: _528  and  _529
REMARK  221  A    between atoms: _538  and  _540
REMARK  222  A    between atoms: _540  and  _541
REMARK  223  A    between atoms: _540  and  _543
REMARK  224  A    between atoms: _543  and  _544
REMARK                            x       y       z     vdW  Elec       q    Type
REMARK                         _______ _______ _______ _____ _____    ______ ____
ROOT
ATOM      1  O   HOH     1      25.408  33.690  11.306  0.00  0.00    +0.000 OA
ENDROOT
TORSDOF 0
REMARK  Name = ../refined-set-2016/2qd6/2qd6_pocket.pdb
REMARK  224 active torsions:
REMARK  status: ('A' for Active; 'I' for Inactive)
REMARK    1  A    between atoms: _1  and  _3
REMARK    2  A    between atoms: _3  and  _4
REMARK    3  A    between atoms: _3  and  _6
REMARK    4  A    between atoms: _6  and  _7
REMARK    5  A    between atoms: _7  and  _8
REMARK    6  A    between atoms: _8  and  _9
REMARK    7  A    between atoms: _18  and  _20
REMARK    8  A    between atoms: _20  and  _21
REMARK    9  A    between atoms: _20  and  _23
REMARK   10  A    between atoms: _23  and  _24
REMARK   11  A    between atoms: _27  and  _29
REMARK   12  A    between atoms: _29  and  _30
REMARK   13  A    between atoms: _29  and  _32
REMARK   14  A    between atoms: _32  and  _33
REMARK   15  A    between atoms: _36  and  _38
REMARK   16  A    between atoms: _38  and  _39
REMARK   17  A    between atoms: _38  and  _41
REMARK   18  A    between atoms: _41  and  _42
REMARK   19  A    between atoms: _45  and  _47
REMARK   20  A    between atoms: _47  and  _48
REMARK   21  A    between atoms: _47  and  _50
REMARK   22  A    between atoms: _50  and  _51
REMARK   23  A    between atoms: _54  and  _56
REMARK   24  A    between atoms: _56  and  _57
REMARK   25  A    between atoms: _59  and  _61
REMARK   26  A    between atoms: _61  and  _62
REMARK   27  A    between atoms: _65  and  _67
REMARK   28  A    between atoms: _67  and  _68
REMARK   29  A    between atoms: _67  and  _70
REMARK   30  A    between atoms: _70  and  _71
REMARK   31  A    between atoms: _74  and  _76
REMARK   32  A    between atoms: _76  and  _77
REMARK   33  A    between atoms: _76  and  _79
REMARK   34  A    between atoms: _79  and  _80
REMARK   35  A    between atoms: _83  and  _85
REMARK   36  A    between atoms: _85  and  _86
REMARK   37  A    between atoms: _85  and  _88
REMARK   38  A    between atoms: _88  and  _89
REMARK   39  A    between atoms: _92  and  _94
REMARK   40  A    between atoms: _94  and  _95
REMARK   41  A    between atoms: _94  and  _97
REMARK   42  A    between atoms: _100  and  _102
REMARK   43  A    between atoms: _102  and  _103
REMARK   44  A    between atoms: _102  and  _105
REMARK   45  A    between atoms: _105  and  _106
REMARK   46  A    between atoms: _106  and  _107
REMARK   47  A    between atoms: _107  and  _108
REMARK   48  A    between atoms: _108  and  _109
REMARK   49  A    between atoms: _113  and  _115
REMARK   50  A    between atoms: _115  and  _116
REMARK   51  A    between atoms: _115  and  _118
REMARK   52  A    between atoms: _118  and  _119
REMARK   53  A    between atoms: _119  and  _120
REMARK   54  A    between atoms: _122  and  _124
REMARK   55  A    between atoms: _124  and  _125
REMARK   56  A    between atoms: _124  and  _127
REMARK   57  A    between atoms: _127  and  _128
REMARK   58  A    between atoms: _131  and  _133
REMARK   59  A    between atoms: _133  and  _134
REMARK   60  A    between atoms: _136  and  _138
REMARK   61  A    between atoms: _138  and  _139
REMARK   62  A    between atoms: _141  and  _143
REMARK   63  A    between atoms: _143  and  _144
REMARK   64  A    between atoms: _143  and  _146
REMARK   65  A    between atoms: _149  and  _151
REMARK   66  A    between atoms: _151  and  _152
REMARK   67  A    between atoms: _154  and  _156
REMARK   68  A    between atoms: _156  and  _157
REMARK   69  A    between atoms: _159  and  _161
REMARK   70  A    between atoms: _161  and  _162
REMARK   71  A    between atoms: _161  and  _164
REMARK   72  A    between atoms: _164  and  _165
REMARK   73  A    between atoms: _171  and  _173
REMARK   74  A    between atoms: _173  and  _174
REMARK   75  A    between atoms: _173  and  _176
REMARK   76  A    between atoms: _176  and  _177
REMARK   77  A    between atoms: _180  and  _182
REMARK   78  A    between atoms: _182  and  _183
REMARK   79  A    between atoms: _182  and  _185
REMARK   80  A    between atoms: _185  and  _186
REMARK   81  A    between atoms: _189  and  _191
REMARK   82  A    between atoms: _191  and  _192
REMARK   83  A    between atoms: _191  and  _194
REMARK   84  A    between atoms: _194  and  _195
REMARK   85  A    between atoms: _199  and  _200
REMARK   86  A    between atoms: _205  and  _207
REMARK   87  A    between atoms: _207  and  _208
REMARK   88  A    between atoms: _207  and  _210
REMARK   89  A    between atoms: _213  and  _215
REMARK   90  A    between atoms: _215  and  _216
REMARK   91  A    between atoms: _215  and  _218
REMARK   92  A    between atoms: _218  and  _219
REMARK   93  A    between atoms: _224  and  _226
REMARK   94  A    between atoms: _226  and  _227
REMARK   95  A    between atoms: _226  and  _229
REMARK   96  A    between atoms: _229  and  _230
REMARK   97  A    between atoms: _233  and  _235
REMARK   98  A    between atoms: _235  and  _236
REMARK   99  A    between atoms: _235  and  _238
REMARK  100  A    between atoms: _238  and  _239
REMARK  101  A    between atoms: _242  and  _244
REMARK  102  A    between atoms: _244  and  _245
REMARK  103  A    between atoms: _247  and  _249
REMARK  104  A    between atoms: _249  and  _250
REMARK  105  A    between atoms: _249  and  _252
REMARK  106  A    between atoms: _252  and  _253
REMARK  107  A    between atoms: _253  and  _254
REMARK  108  A    between atoms: _254  and  _255
REMARK  109  A    between atoms: _264  and  _266
REMARK  110  A    between atoms: _266  and  _267
REMARK  111  A    between atoms: _266  and  _269
REMARK  112  A    between atoms: _269  and  _270
REMARK  113  A    between atoms: _275  and  _277
REMARK  114  A    between atoms: _277  and  _278
REMARK  115  A    between atoms: _277  and  _280
REMARK  116  A    between atoms: _280  and  _281
REMARK  117  A    between atoms: _281  and  _282
REMARK  118  A    between atoms: _282  and  _283
REMARK  119  A    between atoms: _292  and  _294
REMARK  120  A    between atoms: _294  and  _295
REMARK  121  A    between atoms: _294  and  _297
REMARK  122  A    between atoms: _297  and  _298
REMARK  123  A    between atoms: _301  and  _303
REMARK  124  A    between atoms: _303  and  _304
REMARK  125  A    between atoms: _303  and  _306
REMARK  126  A    between atoms: _306  and  _307
REMARK  127  A    between atoms: _310  and  _312
REMARK  128  A    between atoms: _312  and  _313
REMARK  129  A    between atoms: _312  and  _315
REMARK  130  A    between atoms: _315  and  _316
REMARK  131  A    between atoms: _319  and  _321
REMARK  132  A    between atoms: _321  and  _322
REMARK  133  A    between atoms: _321  and  _324
REMARK  134  A    between atoms: _324  and  _325
REMARK  135  A    between atoms: _328  and  _330
REMARK  136  A    between atoms: _330  and  _331
REMARK  137  A    between atoms: _333  and  _335
REMARK  138  A    between atoms: _335  and  _336
REMARK  139  A    between atoms: _339  and  _341
REMARK  140  A    between atoms: _341  and  _342
REMARK  141  A    between atoms: _341  and  _344
REMARK  142  A    between atoms: _344  and  _345
REMARK  143  A    between atoms: _348  and  _350
REMARK  144  A    between atoms: _350  and  _351
REMARK  145  A    between atoms: _350  and  _353
REMARK  146  A    between atoms: _353  and  _354
REMARK  147  A    between atoms: _357  and  _359
REMARK  148  A    between atoms: _359  and  _360
REMARK  149  A    between atoms: _359  and  _362
REMARK  150  A    between atoms: _362  and  _363
REMARK  151  A    between atoms: _366  and  _368
REMARK  152  A    between atoms: _368  and  _369
REMARK  153  A    between atoms: _368  and  _371
REMARK  154  A    between atoms: _374  and  _376
REMARK  155  A    between atoms: _376  and  _377
REMARK  156  A    between atoms: _376  and  _379
REMARK  157  A    between atoms: _379  and  _380
REMARK  158  A    between atoms: _380  and  _381
REMARK  159  A    between atoms: _381  and  _382
REMARK  160  A    between atoms: _382  and  _383
REMARK  161  A    between atoms: _387  and  _389
REMARK  162  A    between atoms: _389  and  _390
REMARK  163  A    between atoms: _389  and  _392
REMARK  164  A    between atoms: _392  and  _393
REMARK  165  A    between atoms: _393  and  _394
REMARK  166  A    between atoms: _396  and  _398
REMARK  167  A    between atoms: _398  and  _399
REMARK  168  A    between atoms: _398  and  _401
REMARK  169  A    between atoms: _401  and  _402
REMARK  170  A    between atoms: _405  and  _407
REMARK  171  A    between atoms: _407  and  _408
REMARK  172  A    between atoms: _410  and  _412
REMARK  173  A    between atoms: _412  and  _413
REMARK  174  A    between atoms: _415  and  _417
REMARK  175  A    between atoms: _417  and  _418
REMARK  176  A    between atoms: _417  and  _420
REMARK  177  A    between atoms: _423  and  _425
REMARK  178  A    between atoms: _425  and  _426
REMARK  179  A    between atoms: _428  and  _430
REMARK  180  A    between atoms: _430  and  _431
REMARK  181  A    between atoms: _433  and  _435
REMARK  182  A    between atoms: _435  and  _436
REMARK  183  A    between atoms: _435  and  _438
REMARK  184  A    between atoms: _438  and  _439
REMARK  185  A    between atoms: _445  and  _447
REMARK  186  A    between atoms: _447  and  _448
REMARK  187  A    between atoms: _447  and  _450
REMARK  188  A    between atoms: _450  and  _451
REMARK  189  A    between atoms: _454  and  _456
REMARK  190  A    between atoms: _456  and  _457
REMARK  191  A    between atoms: _456  and  _459
REMARK  192  A    between atoms: _459  and  _460
REMARK  193  A    between atoms: _463  and  _465
REMARK  194  A    between atoms: _465  and  _466
REMARK  195  A    between atoms: _465  and  _468
REMARK  196  A    between atoms: _468  and  _469
REMARK  197  A    between atoms: _473  and  _474
REMARK  198  A    between atoms: _479  and  _481
REMARK  199  A    between atoms: _481  and  _482
REMARK  200  A    between atoms: _481  and  _484
REMARK  201  A    between atoms: _487  and  _489
REMARK  202  A    between atoms: _489  and  _490
REMARK  203  A    between atoms: _489  and  _492
REMARK  204  A    between atoms: _492  and  _493
REMARK  205  A    between atoms: _498  and  _500
REMARK  206  A    between atoms: _500  and  _501
REMARK  207  A    between atoms: _500  and  _503
REMARK  208  A    between atoms: _503  and  _504
REMARK  209  A    between atoms: _507  and  _509
REMARK  210  A    between atoms: _509  and  _510
REMARK  211  A    between atoms: _509  and  _512
REMARK  212  A    between atoms: _512  and  _513
REMARK  213  A    between atoms: _516  and  _518
REMARK  214  A    between atoms: _518  and  _519
REMARK  215  A    between atoms: _521  and  _523
REMARK  216  A    between atoms: _523  and  _524
REMARK  217  A    between atoms: _523  and  _526
REMARK  218  A    between atoms: _526  and  _527
REMARK  219  A    between atoms: _527  and  _528
REMARK  220  A    between atoms: _528  and  _529
REMARK  221  A    between atoms: _538  and  _540
REMARK  222  A    between atoms: _540  and  _541
REMARK  223  A    between atoms: _540  and  _543
REMARK  224  A    between atoms: _543  and  _544
REMARK                            x       y       z     vdW  Elec       q    Type
REMARK                         _______ _______ _______ _____ _____    ______ ____
ROOT
ATOM      1  O   HOH     1      29.238  24.274  18.755  0.00  0.00    +0.000 OA
ENDROOT
TORSDOF 0
REMARK  Name = ../refined-set-2016/2qd6/2qd6_pocket.pdb
REMARK  224 active torsions:
REMARK  status: ('A' for Active; 'I' for Inactive)
REMARK    1  A    between atoms: _1  and  _3
REMARK    2  A    between atoms: _3  and  _4
REMARK    3  A    between atoms: _3  and  _6
REMARK    4  A    between atoms: _6  and  _7
REMARK    5  A    between atoms: _7  and  _8
REMARK    6  A    between atoms: _8  and  _9
REMARK    7  A    between atoms: _18  and  _20
REMARK    8  A    between atoms: _20  and  _21
REMARK    9  A    between atoms: _20  and  _23
REMARK   10  A    between atoms: _23  and  _24
REMARK   11  A    between atoms: _27  and  _29
REMARK   12  A    between atoms: _29  and  _30
REMARK   13  A    between atoms: _29  and  _32
REMARK   14  A    between atoms: _32  and  _33
REMARK   15  A    between atoms: _36  and  _38
REMARK   16  A    between atoms: _38  and  _39
REMARK   17  A    between atoms: _38  and  _41
REMARK   18  A    between atoms: _41  and  _42
REMARK   19  A    between atoms: _45  and  _47
REMARK   20  A    between atoms: _47  and  _48
REMARK   21  A    between atoms: _47  and  _50
REMARK   22  A    between atoms: _50  and  _51
REMARK   23  A    between atoms: _54  and  _56
REMARK   24  A    between atoms: _56  and  _57
REMARK   25  A    between atoms: _59  and  _61
REMARK   26  A    between atoms: _61  and  _62
REMARK   27  A    between atoms: _65  and  _67
REMARK   28  A    between atoms: _67  and  _68
REMARK   29  A    between atoms: _67  and  _70
REMARK   30  A    between atoms: _70  and  _71
REMARK   31  A    between atoms: _74  and  _76
REMARK   32  A    between atoms: _76  and  _77
REMARK   33  A    between atoms: _76  and  _79
REMARK   34  A    between atoms: _79  and  _80
REMARK   35  A    between atoms: _83  and  _85
REMARK   36  A    between atoms: _85  and  _86
REMARK   37  A    between atoms: _85  and  _88
REMARK   38  A    between atoms: _88  and  _89
REMARK   39  A    between atoms: _92  and  _94
REMARK   40  A    between atoms: _94  and  _95
REMARK   41  A    between atoms: _94  and  _97
REMARK   42  A    between atoms: _100  and  _102
REMARK   43  A    between atoms: _102  and  _103
REMARK   44  A    between atoms: _102  and  _105
REMARK   45  A    between atoms: _105  and  _106
REMARK   46  A    between atoms: _106  and  _107
REMARK   47  A    between atoms: _107  and  _108
REMARK   48  A    between atoms: _108  and  _109
REMARK   49  A    between atoms: _113  and  _115
REMARK   50  A    between atoms: _115  and  _116
REMARK   51  A    between atoms: _115  and  _118
REMARK   52  A    between atoms: _118  and  _119
REMARK   53  A    between atoms: _119  and  _120
REMARK   54  A    between atoms: _122  and  _124
REMARK   55  A    between atoms: _124  and  _125
REMARK   56  A    between atoms: _124  and  _127
REMARK   57  A    between atoms: _127  and  _128
REMARK   58  A    between atoms: _131  and  _133
REMARK   59  A    between atoms: _133  and  _134
REMARK   60  A    between atoms: _136  and  _138
REMARK   61  A    between atoms: _138  and  _139
REMARK   62  A    between atoms: _141  and  _143
REMARK   63  A    between atoms: _143  and  _144
REMARK   64  A    between atoms: _143  and  _146
REMARK   65  A    between atoms: _149  and  _151
REMARK   66  A    between atoms: _151  and  _152
REMARK   67  A    between atoms: _154  and  _156
REMARK   68  A    between atoms: _156  and  _157
REMARK   69  A    between atoms: _159  and  _161
REMARK   70  A    between atoms: _161  and  _162
REMARK   71  A    between atoms: _161  and  _164
REMARK   72  A    between atoms: _164  and  _165
REMARK   73  A    between atoms: _171  and  _173
REMARK   74  A    between atoms: _173  and  _174
REMARK   75  A    between atoms: _173  and  _176
REMARK   76  A    between atoms: _176  and  _177
REMARK   77  A    between atoms: _180  and  _182
REMARK   78  A    between atoms: _182  and  _183
REMARK   79  A    between atoms: _182  and  _185
REMARK   80  A    between atoms: _185  and  _186
REMARK   81  A    between atoms: _189  and  _191
REMARK   82  A    between atoms: _191  and  _192
REMARK   83  A    between atoms: _191  and  _194
REMARK   84  A    between atoms: _194  and  _195
REMARK   85  A    between atoms: _199  and  _200
REMARK   86  A    between atoms: _205  and  _207
REMARK   87  A    between atoms: _207  and  _208
REMARK   88  A    between atoms: _207  and  _210
REMARK   89  A    between atoms: _213  and  _215
REMARK   90  A    between atoms: _215  and  _216
REMARK   91  A    between atoms: _215  and  _218
REMARK   92  A    between atoms: _218  and  _219
REMARK   93  A    between atoms: _224  and  _226
REMARK   94  A    between atoms: _226  and  _227
REMARK   95  A    between atoms: _226  and  _229
REMARK   96  A    between atoms: _229  and  _230
REMARK   97  A    between atoms: _233  and  _235
REMARK   98  A    between atoms: _235  and  _236
REMARK   99  A    between atoms: _235  and  _238
REMARK  100  A    between atoms: _238  and  _239
REMARK  101  A    between atoms: _242  and  _244
REMARK  102  A    between atoms: _244  and  _245
REMARK  103  A    between atoms: _247  and  _249
REMARK  104  A    between atoms: _249  and  _250
REMARK  105  A    between atoms: _249  and  _252
REMARK  106  A    between atoms: _252  and  _253
REMARK  107  A    between atoms: _253  and  _254
REMARK  108  A    between atoms: _254  and  _255
REMARK  109  A    between atoms: _264  and  _266
REMARK  110  A    between atoms: _266  and  _267
REMARK  111  A    between atoms: _266  and  _269
REMARK  112  A    between atoms: _269  and  _270
REMARK  113  A    between atoms: _275  and  _277
REMARK  114  A    between atoms: _277  and  _278
REMARK  115  A    between atoms: _277  and  _280
REMARK  116  A    between atoms: _280  and  _281
REMARK  117  A    between atoms: _281  and  _282
REMARK  118  A    between atoms: _282  and  _283
REMARK  119  A    between atoms: _292  and  _294
REMARK  120  A    between atoms: _294  and  _295
REMARK  121  A    between atoms: _294  and  _297
REMARK  122  A    between atoms: _297  and  _298
REMARK  123  A    between atoms: _301  and  _303
REMARK  124  A    between atoms: _303  and  _304
REMARK  125  A    between atoms: _303  and  _306
REMARK  126  A    between atoms: _306  and  _307
REMARK  127  A    between atoms: _310  and  _312
REMARK  128  A    between atoms: _312  and  _313
REMARK  129  A    between atoms: _312  and  _315
REMARK  130  A    between atoms: _315  and  _316
REMARK  131  A    between atoms: _319  and  _321
REMARK  132  A    between atoms: _321  and  _322
REMARK  133  A    between atoms: _321  and  _324
REMARK  134  A    between atoms: _324  and  _325
REMARK  135  A    between atoms: _328  and  _330
REMARK  136  A    between atoms: _330  and  _331
REMARK  137  A    between atoms: _333  and  _335
REMARK  138  A    between atoms: _335  and  _336
REMARK  139  A    between atoms: _339  and  _341
REMARK  140  A    between atoms: _341  and  _342
REMARK  141  A    between atoms: _341  and  _344
REMARK  142  A    between atoms: _344  and  _345
REMARK  143  A    between atoms: _348  and  _350
REMARK  144  A    between atoms: _350  and  _351
REMARK  145  A    between atoms: _350  and  _353
REMARK  146  A    between atoms: _353  and  _354
REMARK  147  A    between atoms: _357  and  _359
REMARK  148  A    between atoms: _359  and  _360
REMARK  149  A    between atoms: _359  and  _362
REMARK  150  A    between atoms: _362  and  _363
REMARK  151  A    between atoms: _366  and  _368
REMARK  152  A    between atoms: _368  and  _369
REMARK  153  A    between atoms: _368  and  _371
REMARK  154  A    between atoms: _374  and  _376
REMARK  155  A    between atoms: _376  and  _377
REMARK  156  A    between atoms: _376  and  _379
REMARK  157  A    between atoms: _379  and  _380
REMARK  158  A    between atoms: _380  and  _381
REMARK  159  A    between atoms: _381  and  _382
REMARK  160  A    between atoms: _382  and  _383
REMARK  161  A    between atoms: _387  and  _389
REMARK  162  A    between atoms: _389  and  _390
REMARK  163  A    between atoms: _389  and  _392
REMARK  164  A    between atoms: _392  and  _393
REMARK  165  A    between atoms: _393  and  _394
REMARK  166  A    between atoms: _396  and  _398
REMARK  167  A    between atoms: _398  and  _399
REMARK  168  A    between atoms: _398  and  _401
REMARK  169  A    between atoms: _401  and  _402
REMARK  170  A    between atoms: _405  and  _407
REMARK  171  A    between atoms: _407  and  _408
REMARK  172  A    between atoms: _410  and  _412
REMARK  173  A    between atoms: _412  and  _413
REMARK  174  A    between atoms: _415  and  _417
REMARK  175  A    between atoms: _417  and  _418
REMARK  176  A    between atoms: _417  and  _420
REMARK  177  A    between atoms: _423  and  _425
REMARK  178  A    between atoms: _425  and  _426
REMARK  179  A    between atoms: _428  and  _430
REMARK  180  A    between atoms: _430  and  _431
REMARK  181  A    between atoms: _433  and  _435
REMARK  182  A    between atoms: _435  and  _436
REMARK  183  A    between atoms: _435  and  _438
REMARK  184  A    between atoms: _438  and  _439
REMARK  185  A    between atoms: _445  and  _447
REMARK  186  A    between atoms: _447  and  _448
REMARK  187  A    between atoms: _447  and  _450
REMARK  188  A    between atoms: _450  and  _451
REMARK  189  A    between atoms: _454  and  _456
REMARK  190  A    between atoms: _456  and  _457
REMARK  191  A    between atoms: _456  and  _459
REMARK  192  A    between atoms: _459  and  _460
REMARK  193  A    between atoms: _463  and  _465
REMARK  194  A    between atoms: _465  and  _466
REMARK  195  A    between atoms: _465  and  _468
REMARK  196  A    between atoms: _468  and  _469
REMARK  197  A    between atoms: _473  and  _474
REMARK  198  A    between atoms: _479  and  _481
REMARK  199  A    between atoms: _481  and  _482
REMARK  200  A    between atoms: _481  and  _484
REMARK  201  A    between atoms: _487  and  _489
REMARK  202  A    between atoms: _489  and  _490
REMARK  203  A    between atoms: _489  and  _492
REMARK  204  A    between atoms: _492  and  _493
REMARK  205  A    between atoms: _498  and  _500
REMARK  206  A    between atoms: _500  and  _501
REMARK  207  A    between atoms: _500  and  _503
REMARK  208  A    between atoms: _503  and  _504
REMARK  209  A    between atoms: _507  and  _509
REMARK  210  A    between atoms: _509  and  _510
REMARK  211  A    between atoms: _509  and  _512
REMARK  212  A    between atoms: _512  and  _513
REMARK  213  A    between atoms: _516  and  _518
REMARK  214  A    between atoms: _518  and  _519
REMARK  215  A    between atoms: _521  and  _523
REMARK  216  A    between atoms: _523  and  _524
REMARK  217  A    between atoms: _523  and  _526
REMARK  218  A    between atoms: _526  and  _527
REMARK  219  A    between atoms: _527  and  _528
REMARK  220  A    between atoms: _528  and  _529
REMARK  221  A    between atoms: _538  and  _540
REMARK  222  A    between atoms: _540  and  _541
REMARK  223  A    between atoms: _540  and  _543
REMARK  224  A    between atoms: _543  and  _544
REMARK                            x       y       z     vdW  Elec       q    Type
REMARK                         _______ _______ _______ _____ _____    ______ ____
ROOT
ATOM      1  O   HOH     1       4.553  21.598  11.421  0.00  0.00    +0.000 OA
ENDROOT
TORSDOF 0
REMARK  Name = ../refined-set-2016/2qd6/2qd6_pocket.pdb
REMARK  224 active torsions:
REMARK  status: ('A' for Active; 'I' for Inactive)
REMARK    1  A    between atoms: _1  and  _3
REMARK    2  A    between atoms: _3  and  _4
REMARK    3  A    between atoms: _3  and  _6
REMARK    4  A    between atoms: _6  and  _7
REMARK    5  A    between atoms: _7  and  _8
REMARK    6  A    between atoms: _8  and  _9
REMARK    7  A    between atoms: _18  and  _20
REMARK    8  A    between atoms: _20  and  _21
REMARK    9  A    between atoms: _20  and  _23
REMARK   10  A    between atoms: _23  and  _24
REMARK   11  A    between atoms: _27  and  _29
REMARK   12  A    between atoms: _29  and  _30
REMARK   13  A    between atoms: _29  and  _32
REMARK   14  A    between atoms: _32  and  _33
REMARK   15  A    between atoms: _36  and  _38
REMARK   16  A    between atoms: _38  and  _39
REMARK   17  A    between atoms: _38  and  _41
REMARK   18  A    between atoms: _41  and  _42
REMARK   19  A    between atoms: _45  and  _47
REMARK   20  A    between atoms: _47  and  _48
REMARK   21  A    between atoms: _47  and  _50
REMARK   22  A    between atoms: _50  and  _51
REMARK   23  A    between atoms: _54  and  _56
REMARK   24  A    between atoms: _56  and  _57
REMARK   25  A    between atoms: _59  and  _61
REMARK   26  A    between atoms: _61  and  _62
REMARK   27  A    between atoms: _65  and  _67
REMARK   28  A    between atoms: _67  and  _68
REMARK   29  A    between atoms: _67  and  _70
REMARK   30  A    between atoms: _70  and  _71
REMARK   31  A    between atoms: _74  and  _76
REMARK   32  A    between atoms: _76  and  _77
REMARK   33  A    between atoms: _76  and  _79
REMARK   34  A    between atoms: _79  and  _80
REMARK   35  A    between atoms: _83  and  _85
REMARK   36  A    between atoms: _85  and  _86
REMARK   37  A    between atoms: _85  and  _88
REMARK   38  A    between atoms: _88  and  _89
REMARK   39  A    between atoms: _92  and  _94
REMARK   40  A    between atoms: _94  and  _95
REMARK   41  A    between atoms: _94  and  _97
REMARK   42  A    between atoms: _100  and  _102
REMARK   43  A    between atoms: _102  and  _103
REMARK   44  A    between atoms: _102  and  _105
REMARK   45  A    between atoms: _105  and  _106
REMARK   46  A    between atoms: _106  and  _107
REMARK   47  A    between atoms: _107  and  _108
REMARK   48  A    between atoms: _108  and  _109
REMARK   49  A    between atoms: _113  and  _115
REMARK   50  A    between atoms: _115  and  _116
REMARK   51  A    between atoms: _115  and  _118
REMARK   52  A    between atoms: _118  and  _119
REMARK   53  A    between atoms: _119  and  _120
REMARK   54  A    between atoms: _122  and  _124
REMARK   55  A    between atoms: _124  and  _125
REMARK   56  A    between atoms: _124  and  _127
REMARK   57  A    between atoms: _127  and  _128
REMARK   58  A    between atoms: _131  and  _133
REMARK   59  A    between atoms: _133  and  _134
REMARK   60  A    between atoms: _136  and  _138
REMARK   61  A    between atoms: _138  and  _139
REMARK   62  A    between atoms: _141  and  _143
REMARK   63  A    between atoms: _143  and  _144
REMARK   64  A    between atoms: _143  and  _146
REMARK   65  A    between atoms: _149  and  _151
REMARK   66  A    between atoms: _151  and  _152
REMARK   67  A    between atoms: _154  and  _156
REMARK   68  A    between atoms: _156  and  _157
REMARK   69  A    between atoms: _159  and  _161
REMARK   70  A    between atoms: _161  and  _162
REMARK   71  A    between atoms: _161  and  _164
REMARK   72  A    between atoms: _164  and  _165
REMARK   73  A    between atoms: _171  and  _173
REMARK   74  A    between atoms: _173  and  _174
REMARK   75  A    between atoms: _173  and  _176
REMARK   76  A    between atoms: _176  and  _177
REMARK   77  A    between atoms: _180  and  _182
REMARK   78  A    between atoms: _182  and  _183
REMARK   79  A    between atoms: _182  and  _185
REMARK   80  A    between atoms: _185  and  _186
REMARK   81  A    between atoms: _189  and  _191
REMARK   82  A    between atoms: _191  and  _192
REMARK   83  A    between atoms: _191  and  _194
REMARK   84  A    between atoms: _194  and  _195
REMARK   85  A    between atoms: _199  and  _200
REMARK   86  A    between atoms: _205  and  _207
REMARK   87  A    between atoms: _207  and  _208
REMARK   88  A    between atoms: _207  and  _210
REMARK   89  A    between atoms: _213  and  _215
REMARK   90  A    between atoms: _215  and  _216
REMARK   91  A    between atoms: _215  and  _218
REMARK   92  A    between atoms: _218  and  _219
REMARK   93  A    between atoms: _224  and  _226
REMARK   94  A    between atoms: _226  and  _227
REMARK   95  A    between atoms: _226  and  _229
REMARK   96  A    between atoms: _229  and  _230
REMARK   97  A    between atoms: _233  and  _235
REMARK   98  A    between atoms: _235  and  _236
REMARK   99  A    between atoms: _235  and  _238
REMARK  100  A    between atoms: _238  and  _239
REMARK  101  A    between atoms: _242  and  _244
REMARK  102  A    between atoms: _244  and  _245
REMARK  103  A    between atoms: _247  and  _249
REMARK  104  A    between atoms: _249  and  _250
REMARK  105  A    between atoms: _249  and  _252
REMARK  106  A    between atoms: _252  and  _253
REMARK  107  A    between atoms: _253  and  _254
REMARK  108  A    between atoms: _254  and  _255
REMARK  109  A    between atoms: _264  and  _266
REMARK  110  A    between atoms: _266  and  _267
REMARK  111  A    between atoms: _266  and  _269
REMARK  112  A    between atoms: _269  and  _270
REMARK  113  A    between atoms: _275  and  _277
REMARK  114  A    between atoms: _277  and  _278
REMARK  115  A    between atoms: _277  and  _280
REMARK  116  A    between atoms: _280  and  _281
REMARK  117  A    between atoms: _281  and  _282
REMARK  118  A    between atoms: _282  and  _283
REMARK  119  A    between atoms: _292  and  _294
REMARK  120  A    between atoms: _294  and  _295
REMARK  121  A    between atoms: _294  and  _297
REMARK  122  A    between atoms: _297  and  _298
REMARK  123  A    between atoms: _301  and  _303
REMARK  124  A    between atoms: _303  and  _304
REMARK  125  A    between atoms: _303  and  _306
REMARK  126  A    between atoms: _306  and  _307
REMARK  127  A    between atoms: _310  and  _312
REMARK  128  A    between atoms: _312  and  _313
REMARK  129  A    between atoms: _312  and  _315
REMARK  130  A    between atoms: _315  and  _316
REMARK  131  A    between atoms: _319  and  _321
REMARK  132  A    between atoms: _321  and  _322
REMARK  133  A    between atoms: _321  and  _324
REMARK  134  A    between atoms: _324  and  _325
REMARK  135  A    between atoms: _328  and  _330
REMARK  136  A    between atoms: _330  and  _331
REMARK  137  A    between atoms: _333  and  _335
REMARK  138  A    between atoms: _335  and  _336
REMARK  139  A    between atoms: _339  and  _341
REMARK  140  A    between atoms: _341  and  _342
REMARK  141  A    between atoms: _341  and  _344
REMARK  142  A    between atoms: _344  and  _345
REMARK  143  A    between atoms: _348  and  _350
REMARK  144  A    between atoms: _350  and  _351
REMARK  145  A    between atoms: _350  and  _353
REMARK  146  A    between atoms: _353  and  _354
REMARK  147  A    between atoms: _357  and  _359
REMARK  148  A    between atoms: _359  and  _360
REMARK  149  A    between atoms: _359  and  _362
REMARK  150  A    between atoms: _362  and  _363
REMARK  151  A    between atoms: _366  and  _368
REMARK  152  A    between atoms: _368  and  _369
REMARK  153  A    between atoms: _368  and  _371
REMARK  154  A    between atoms: _374  and  _376
REMARK  155  A    between atoms: _376  and  _377
REMARK  156  A    between atoms: _376  and  _379
REMARK  157  A    between atoms: _379  and  _380
REMARK  158  A    between atoms: _380  and  _381
REMARK  159  A    between atoms: _381  and  _382
REMARK  160  A    between atoms: _382  and  _383
REMARK  161  A    between atoms: _387  and  _389
REMARK  162  A    between atoms: _389  and  _390
REMARK  163  A    between atoms: _389  and  _392
REMARK  164  A    between atoms: _392  and  _393
REMARK  165  A    between atoms: _393  and  _394
REMARK  166  A    between atoms: _396  and  _398
REMARK  167  A    between atoms: _398  and  _399
REMARK  168  A    between atoms: _398  and  _401
REMARK  169  A    between atoms: _401  and  _402
REMARK  170  A    between atoms: _405  and  _407
REMARK  171  A    between atoms: _407  and  _408
REMARK  172  A    between atoms: _410  and  _412
REMARK  173  A    between atoms: _412  and  _413
REMARK  174  A    between atoms: _415  and  _417
REMARK  175  A    between atoms: _417  and  _418
REMARK  176  A    between atoms: _417  and  _420
REMARK  177  A    between atoms: _423  and  _425
REMARK  178  A    between atoms: _425  and  _426
REMARK  179  A    between atoms: _428  and  _430
REMARK  180  A    between atoms: _430  and  _431
REMARK  181  A    between atoms: _433  and  _435
REMARK  182  A    between atoms: _435  and  _436
REMARK  183  A    between atoms: _435  and  _438
REMARK  184  A    between atoms: _438  and  _439
REMARK  185  A    between atoms: _445  and  _447
REMARK  186  A    between atoms: _447  and  _448
REMARK  187  A    between atoms: _447  and  _450
REMARK  188  A    between atoms: _450  and  _451
REMARK  189  A    between atoms: _454  and  _456
REMARK  190  A    between atoms: _456  and  _457
REMARK  191  A    between atoms: _456  and  _459
REMARK  192  A    between atoms: _459  and  _460
REMARK  193  A    between atoms: _463  and  _465
REMARK  194  A    between atoms: _465  and  _466
REMARK  195  A    between atoms: _465  and  _468
REMARK  196  A    between atoms: _468  and  _469
REMARK  197  A    between atoms: _473  and  _474
REMARK  198  A    between atoms: _479  and  _481
REMARK  199  A    between atoms: _481  and  _482
REMARK  200  A    between atoms: _481  and  _484
REMARK  201  A    between atoms: _487  and  _489
REMARK  202  A    between atoms: _489  and  _490
REMARK  203  A    between atoms: _489  and  _492
REMARK  204  A    between atoms: _492  and  _493
REMARK  205  A    between atoms: _498  and  _500
REMARK  206  A    between atoms: _500  and  _501
REMARK  207  A    between atoms: _500  and  _503
REMARK  208  A    between atoms: _503  and  _504
REMARK  209  A    between atoms: _507  and  _509
REMARK  210  A    between atoms: _509  and  _510
REMARK  211  A    between atoms: _509  and  _512
REMARK  212  A    between atoms: _512  and  _513
REMARK  213  A    between atoms: _516  and  _518
REMARK  214  A    between atoms: _518  and  _519
REMARK  215  A    between atoms: _521  and  _523
REMARK  216  A    between atoms: _523  and  _524
REMARK  217  A    between atoms: _523  and  _526
REMARK  218  A    between atoms: _526  and  _527
REMARK  219  A    between atoms: _527  and  _528
REMARK  220  A    between atoms: _528  and  _529
REMARK  221  A    between atoms: _538  and  _540
REMARK  222  A    between atoms: _540  and  _541
REMARK  223  A    between atoms: _540  and  _543
REMARK  224  A    between atoms: _543  and  _544
REMARK                            x       y       z     vdW  Elec       q    Type
REMARK                         _______ _______ _______ _____ _____    ______ ____
ROOT
ATOM      1  O   HOH     1       6.699  22.510  11.436  0.00  0.00    +0.000 OA
ENDROOT
TORSDOF 0
REMARK  Name = ../refined-set-2016/2qd6/2qd6_pocket.pdb
REMARK  224 active torsions:
REMARK  status: ('A' for Active; 'I' for Inactive)
REMARK    1  A    between atoms: _1  and  _3
REMARK    2  A    between atoms: _3  and  _4
REMARK    3  A    between atoms: _3  and  _6
REMARK    4  A    between atoms: _6  and  _7
REMARK    5  A    between atoms: _7  and  _8
REMARK    6  A    between atoms: _8  and  _9
REMARK    7  A    between atoms: _18  and  _20
REMARK    8  A    between atoms: _20  and  _21
REMARK    9  A    between atoms: _20  and  _23
REMARK   10  A    between atoms: _23  and  _24
REMARK   11  A    between atoms: _27  and  _29
REMARK   12  A    between atoms: _29  and  _30
REMARK   13  A    between atoms: _29  and  _32
REMARK   14  A    between atoms: _32  and  _33
REMARK   15  A    between atoms: _36  and  _38
REMARK   16  A    between atoms: _38  and  _39
REMARK   17  A    between atoms: _38  and  _41
REMARK   18  A    between atoms: _41  and  _42
REMARK   19  A    between atoms: _45  and  _47
REMARK   20  A    between atoms: _47  and  _48
REMARK   21  A    between atoms: _47  and  _50
REMARK   22  A    between atoms: _50  and  _51
REMARK   23  A    between atoms: _54  and  _56
REMARK   24  A    between atoms: _56  and  _57
REMARK   25  A    between atoms: _59  and  _61
REMARK   26  A    between atoms: _61  and  _62
REMARK   27  A    between atoms: _65  and  _67
REMARK   28  A    between atoms: _67  and  _68
REMARK   29  A    between atoms: _67  and  _70
REMARK   30  A    between atoms: _70  and  _71
REMARK   31  A    between atoms: _74  and  _76
REMARK   32  A    between atoms: _76  and  _77
REMARK   33  A    between atoms: _76  and  _79
REMARK   34  A    between atoms: _79  and  _80
REMARK   35  A    between atoms: _83  and  _85
REMARK   36  A    between atoms: _85  and  _86
REMARK   37  A    between atoms: _85  and  _88
REMARK   38  A    between atoms: _88  and  _89
REMARK   39  A    between atoms: _92  and  _94
REMARK   40  A    between atoms: _94  and  _95
REMARK   41  A    between atoms: _94  and  _97
REMARK   42  A    between atoms: _100  and  _102
REMARK   43  A    between atoms: _102  and  _103
REMARK   44  A    between atoms: _102  and  _105
REMARK   45  A    between atoms: _105  and  _106
REMARK   46  A    between atoms: _106  and  _107
REMARK   47  A    between atoms: _107  and  _108
REMARK   48  A    between atoms: _108  and  _109
REMARK   49  A    between atoms: _113  and  _115
REMARK   50  A    between atoms: _115  and  _116
REMARK   51  A    between atoms: _115  and  _118
REMARK   52  A    between atoms: _118  and  _119
REMARK   53  A    between atoms: _119  and  _120
REMARK   54  A    between atoms: _122  and  _124
REMARK   55  A    between atoms: _124  and  _125
REMARK   56  A    between atoms: _124  and  _127
REMARK   57  A    between atoms: _127  and  _128
REMARK   58  A    between atoms: _131  and  _133
REMARK   59  A    between atoms: _133  and  _134
REMARK   60  A    between atoms: _136  and  _138
REMARK   61  A    between atoms: _138  and  _139
REMARK   62  A    between atoms: _141  and  _143
REMARK   63  A    between atoms: _143  and  _144
REMARK   64  A    between atoms: _143  and  _146
REMARK   65  A    between atoms: _149  and  _151
REMARK   66  A    between atoms: _151  and  _152
REMARK   67  A    between atoms: _154  and  _156
REMARK   68  A    between atoms: _156  and  _157
REMARK   69  A    between atoms: _159  and  _161
REMARK   70  A    between atoms: _161  and  _162
REMARK   71  A    between atoms: _161  and  _164
REMARK   72  A    between atoms: _164  and  _165
REMARK   73  A    between atoms: _171  and  _173
REMARK   74  A    between atoms: _173  and  _174
REMARK   75  A    between atoms: _173  and  _176
REMARK   76  A    between atoms: _176  and  _177
REMARK   77  A    between atoms: _180  and  _182
REMARK   78  A    between atoms: _182  and  _183
REMARK   79  A    between atoms: _182  and  _185
REMARK   80  A    between atoms: _185  and  _186
REMARK   81  A    between atoms: _189  and  _191
REMARK   82  A    between atoms: _191  and  _192
REMARK   83  A    between atoms: _191  and  _194
REMARK   84  A    between atoms: _194  and  _195
REMARK   85  A    between atoms: _199  and  _200
REMARK   86  A    between atoms: _205  and  _207
REMARK   87  A    between atoms: _207  and  _208
REMARK   88  A    between atoms: _207  and  _210
REMARK   89  A    between atoms: _213  and  _215
REMARK   90  A    between atoms: _215  and  _216
REMARK   91  A    between atoms: _215  and  _218
REMARK   92  A    between atoms: _218  and  _219
REMARK   93  A    between atoms: _224  and  _226
REMARK   94  A    between atoms: _226  and  _227
REMARK   95  A    between atoms: _226  and  _229
REMARK   96  A    between atoms: _229  and  _230
REMARK   97  A    between atoms: _233  and  _235
REMARK   98  A    between atoms: _235  and  _236
REMARK   99  A    between atoms: _235  and  _238
REMARK  100  A    between atoms: _238  and  _239
REMARK  101  A    between atoms: _242  and  _244
REMARK  102  A    between atoms: _244  and  _245
REMARK  103  A    between atoms: _247  and  _249
REMARK  104  A    between atoms: _249  and  _250
REMARK  105  A    between atoms: _249  and  _252
REMARK  106  A    between atoms: _252  and  _253
REMARK  107  A    between atoms: _253  and  _254
REMARK  108  A    between atoms: _254  and  _255
REMARK  109  A    between atoms: _264  and  _266
REMARK  110  A    between atoms: _266  and  _267
REMARK  111  A    between atoms: _266  and  _269
REMARK  112  A    between atoms: _269  and  _270
REMARK  113  A    between atoms: _275  and  _277
REMARK  114  A    between atoms: _277  and  _278
REMARK  115  A    between atoms: _277  and  _280
REMARK  116  A    between atoms: _280  and  _281
REMARK  117  A    between atoms: _281  and  _282
REMARK  118  A    between atoms: _282  and  _283
REMARK  119  A    between atoms: _292  and  _294
REMARK  120  A    between atoms: _294  and  _295
REMARK  121  A    between atoms: _294  and  _297
REMARK  122  A    between atoms: _297  and  _298
REMARK  123  A    between atoms: _301  and  _303
REMARK  124  A    between atoms: _303  and  _304
REMARK  125  A    between atoms: _303  and  _306
REMARK  126  A    between atoms: _306  and  _307
REMARK  127  A    between atoms: _310  and  _312
REMARK  128  A    between atoms: _312  and  _313
REMARK  129  A    between atoms: _312  and  _315
REMARK  130  A    between atoms: _315  and  _316
REMARK  131  A    between atoms: _319  and  _321
REMARK  132  A    between atoms: _321  and  _322
REMARK  133  A    between atoms: _321  and  _324
REMARK  134  A    between atoms: _324  and  _325
REMARK  135  A    between atoms: _328  and  _330
REMARK  136  A    between atoms: _330  and  _331
REMARK  137  A    between atoms: _333  and  _335
REMARK  138  A    between atoms: _335  and  _336
REMARK  139  A    between atoms: _339  and  _341
REMARK  140  A    between atoms: _341  and  _342
REMARK  141  A    between atoms: _341  and  _344
REMARK  142  A    between atoms: _344  and  _345
REMARK  143  A    between atoms: _348  and  _350
REMARK  144  A    between atoms: _350  and  _351
REMARK  145  A    between atoms: _350  and  _353
REMARK  146  A    between atoms: _353  and  _354
REMARK  147  A    between atoms: _357  and  _359
REMARK  148  A    between atoms: _359  and  _360
REMARK  149  A    between atoms: _359  and  _362
REMARK  150  A    between atoms: _362  and  _363
REMARK  151  A    between atoms: _366  and  _368
REMARK  152  A    between atoms: _368  and  _369
REMARK  153  A    between atoms: _368  and  _371
REMARK  154  A    between atoms: _374  and  _376
REMARK  155  A    between atoms: _376  and  _377
REMARK  156  A    between atoms: _376  and  _379
REMARK  157  A    between atoms: _379  and  _380
REMARK  158  A    between atoms: _380  and  _381
REMARK  159  A    between atoms: _381  and  _382
REMARK  160  A    between atoms: _382  and  _383
REMARK  161  A    between atoms: _387  and  _389
REMARK  162  A    between atoms: _389  and  _390
REMARK  163  A    between atoms: _389  and  _392
REMARK  164  A    between atoms: _392  and  _393
REMARK  165  A    between atoms: _393  and  _394
REMARK  166  A    between atoms: _396  and  _398
REMARK  167  A    between atoms: _398  and  _399
REMARK  168  A    between atoms: _398  and  _401
REMARK  169  A    between atoms: _401  and  _402
REMARK  170  A    between atoms: _405  and  _407
REMARK  171  A    between atoms: _407  and  _408
REMARK  172  A    between atoms: _410  and  _412
REMARK  173  A    between atoms: _412  and  _413
REMARK  174  A    between atoms: _415  and  _417
REMARK  175  A    between atoms: _417  and  _418
REMARK  176  A    between atoms: _417  and  _420
REMARK  177  A    between atoms: _423  and  _425
REMARK  178  A    between atoms: _425  and  _426
REMARK  179  A    between atoms: _428  and  _430
REMARK  180  A    between atoms: _430  and  _431
REMARK  181  A    between atoms: _433  and  _435
REMARK  182  A    between atoms: _435  and  _436
REMARK  183  A    between atoms: _435  and  _438
REMARK  184  A    between atoms: _438  and  _439
REMARK  185  A    between atoms: _445  and  _447
REMARK  186  A    between atoms: _447  and  _448
REMARK  187  A    between atoms: _447  and  _450
REMARK  188  A    between atoms: _450  and  _451
REMARK  189  A    between atoms: _454  and  _456
REMARK  190  A    between atoms: _456  and  _457
REMARK  191  A    between atoms: _456  and  _459
REMARK  192  A    between atoms: _459  and  _460
REMARK  193  A    between atoms: _463  and  _465
REMARK  194  A    between atoms: _465  and  _466
REMARK  195  A    between atoms: _465  and  _468
REMARK  196  A    between atoms: _468  and  _469
REMARK  197  A    between atoms: _473  and  _474
REMARK  198  A    between atoms: _479  and  _481
REMARK  199  A    between atoms: _481  and  _482
REMARK  200  A    between atoms: _481  and  _484
REMARK  201  A    between atoms: _487  and  _489
REMARK  202  A    between atoms: _489  and  _490
REMARK  203  A    between atoms: _489  and  _492
REMARK  204  A    between atoms: _492  and  _493
REMARK  205  A    between atoms: _498  and  _500
REMARK  206  A    between atoms: _500  and  _501
REMARK  207  A    between atoms: _500  and  _503
REMARK  208  A    between atoms: _503  and  _504
REMARK  209  A    between atoms: _507  and  _509
REMARK  210  A    between atoms: _509  and  _510
REMARK  211  A    between atoms: _509  and  _512
REMARK  212  A    between atoms: _512  and  _513
REMARK  213  A    between atoms: _516  and  _518
REMARK  214  A    between atoms: _518  and  _519
REMARK  215  A    between atoms: _521  and  _523
REMARK  216  A    between atoms: _523  and  _524
REMARK  217  A    between atoms: _523  and  _526
REMARK  218  A    between atoms: _526  and  _527
REMARK  219  A    between atoms: _527  and  _528
REMARK  220  A    between atoms: _528  and  _529
REMARK  221  A    between atoms: _538  and  _540
REMARK  222  A    between atoms: _540  and  _541
REMARK  223  A    between atoms: _540  and  _543
REMARK  224  A    between atoms: _543  and  _544
REMARK                            x       y       z     vdW  Elec       q    Type
REMARK                         _______ _______ _______ _____ _____    ______ ____
ROOT
ATOM      1  O   HOH     1      25.329  30.406  17.366  0.00  0.00    +0.000 OA
ENDROOT
TORSDOF 0
REMARK  Name = ../refined-set-2016/2qd6/2qd6_pocket.pdb
REMARK  224 active torsions:
REMARK  status: ('A' for Active; 'I' for Inactive)
REMARK    1  A    between atoms: _1  and  _3
REMARK    2  A    between atoms: _3  and  _4
REMARK    3  A    between atoms: _3  and  _6
REMARK    4  A    between atoms: _6  and  _7
REMARK    5  A    between atoms: _7  and  _8
REMARK    6  A    between atoms: _8  and  _9
REMARK    7  A    between atoms: _18  and  _20
REMARK    8  A    between atoms: _20  and  _21
REMARK    9  A    between atoms: _20  and  _23
REMARK   10  A    between atoms: _23  and  _24
REMARK   11  A    between atoms: _27  and  _29
REMARK   12  A    between atoms: _29  and  _30
REMARK   13  A    between atoms: _29  and  _32
REMARK   14  A    between atoms: _32  and  _33
REMARK   15  A    between atoms: _36  and  _38
REMARK   16  A    between atoms: _38  and  _39
REMARK   17  A    between atoms: _38  and  _41
REMARK   18  A    between atoms: _41  and  _42
REMARK   19  A    between atoms: _45  and  _47
REMARK   20  A    between atoms: _47  and  _48
REMARK   21  A    between atoms: _47  and  _50
REMARK   22  A    between atoms: _50  and  _51
REMARK   23  A    between atoms: _54  and  _56
REMARK   24  A    between atoms: _56  and  _57
REMARK   25  A    between atoms: _59  and  _61
REMARK   26  A    between atoms: _61  and  _62
REMARK   27  A    between atoms: _65  and  _67
REMARK   28  A    between atoms: _67  and  _68
REMARK   29  A    between atoms: _67  and  _70
REMARK   30  A    between atoms: _70  and  _71
REMARK   31  A    between atoms: _74  and  _76
REMARK   32  A    between atoms: _76  and  _77
REMARK   33  A    between atoms: _76  and  _79
REMARK   34  A    between atoms: _79  and  _80
REMARK   35  A    between atoms: _83  and  _85
REMARK   36  A    between atoms: _85  and  _86
REMARK   37  A    between atoms: _85  and  _88
REMARK   38  A    between atoms: _88  and  _89
REMARK   39  A    between atoms: _92  and  _94
REMARK   40  A    between atoms: _94  and  _95
REMARK   41  A    between atoms: _94  and  _97
REMARK   42  A    between atoms: _100  and  _102
REMARK   43  A    between atoms: _102  and  _103
REMARK   44  A    between atoms: _102  and  _105
REMARK   45  A    between atoms: _105  and  _106
REMARK   46  A    between atoms: _106  and  _107
REMARK   47  A    between atoms: _107  and  _108
REMARK   48  A    between atoms: _108  and  _109
REMARK   49  A    between atoms: _113  and  _115
REMARK   50  A    between atoms: _115  and  _116
REMARK   51  A    between atoms: _115  and  _118
REMARK   52  A    between atoms: _118  and  _119
REMARK   53  A    between atoms: _119  and  _120
REMARK   54  A    between atoms: _122  and  _124
REMARK   55  A    between atoms: _124  and  _125
REMARK   56  A    between atoms: _124  and  _127
REMARK   57  A    between atoms: _127  and  _128
REMARK   58  A    between atoms: _131  and  _133
REMARK   59  A    between atoms: _133  and  _134
REMARK   60  A    between atoms: _136  and  _138
REMARK   61  A    between atoms: _138  and  _139
REMARK   62  A    between atoms: _141  and  _143
REMARK   63  A    between atoms: _143  and  _144
REMARK   64  A    between atoms: _143  and  _146
REMARK   65  A    between atoms: _149  and  _151
REMARK   66  A    between atoms: _151  and  _152
REMARK   67  A    between atoms: _154  and  _156
REMARK   68  A    between atoms: _156  and  _157
REMARK   69  A    between atoms: _159  and  _161
REMARK   70  A    between atoms: _161  and  _162
REMARK   71  A    between atoms: _161  and  _164
REMARK   72  A    between atoms: _164  and  _165
REMARK   73  A    between atoms: _171  and  _173
REMARK   74  A    between atoms: _173  and  _174
REMARK   75  A    between atoms: _173  and  _176
REMARK   76  A    between atoms: _176  and  _177
REMARK   77  A    between atoms: _180  and  _182
REMARK   78  A    between atoms: _182  and  _183
REMARK   79  A    between atoms: _182  and  _185
REMARK   80  A    between atoms: _185  and  _186
REMARK   81  A    between atoms: _189  and  _191
REMARK   82  A    between atoms: _191  and  _192
REMARK   83  A    between atoms: _191  and  _194
REMARK   84  A    between atoms: _194  and  _195
REMARK   85  A    between atoms: _199  and  _200
REMARK   86  A    between atoms: _205  and  _207
REMARK   87  A    between atoms: _207  and  _208
REMARK   88  A    between atoms: _207  and  _210
REMARK   89  A    between atoms: _213  and  _215
REMARK   90  A    between atoms: _215  and  _216
REMARK   91  A    between atoms: _215  and  _218
REMARK   92  A    between atoms: _218  and  _219
REMARK   93  A    between atoms: _224  and  _226
REMARK   94  A    between atoms: _226  and  _227
REMARK   95  A    between atoms: _226  and  _229
REMARK   96  A    between atoms: _229  and  _230
REMARK   97  A    between atoms: _233  and  _235
REMARK   98  A    between atoms: _235  and  _236
REMARK   99  A    between atoms: _235  and  _238
REMARK  100  A    between atoms: _238  and  _239
REMARK  101  A    between atoms: _242  and  _244
REMARK  102  A    between atoms: _244  and  _245
REMARK  103  A    between atoms: _247  and  _249
REMARK  104  A    between atoms: _249  and  _250
REMARK  105  A    between atoms: _249  and  _252
REMARK  106  A    between atoms: _252  and  _253
REMARK  107  A    between atoms: _253  and  _254
REMARK  108  A    between atoms: _254  and  _255
REMARK  109  A    between atoms: _264  and  _266
REMARK  110  A    between atoms: _266  and  _267
REMARK  111  A    between atoms: _266  and  _269
REMARK  112  A    between atoms: _269  and  _270
REMARK  113  A    between atoms: _275  and  _277
REMARK  114  A    between atoms: _277  and  _278
REMARK  115  A    between atoms: _277  and  _280
REMARK  116  A    between atoms: _280  and  _281
REMARK  117  A    between atoms: _281  and  _282
REMARK  118  A    between atoms: _282  and  _283
REMARK  119  A    between atoms: _292  and  _294
REMARK  120  A    between atoms: _294  and  _295
REMARK  121  A    between atoms: _294  and  _297
REMARK  122  A    between atoms: _297  and  _298
REMARK  123  A    between atoms: _301  and  _303
REMARK  124  A    between atoms: _303  and  _304
REMARK  125  A    between atoms: _303  and  _306
REMARK  126  A    between atoms: _306  and  _307
REMARK  127  A    between atoms: _310  and  _312
REMARK  128  A    between atoms: _312  and  _313
REMARK  129  A    between atoms: _312  and  _315
REMARK  130  A    between atoms: _315  and  _316
REMARK  131  A    between atoms: _319  and  _321
REMARK  132  A    between atoms: _321  and  _322
REMARK  133  A    between atoms: _321  and  _324
REMARK  134  A    between atoms: _324  and  _325
REMARK  135  A    between atoms: _328  and  _330
REMARK  136  A    between atoms: _330  and  _331
REMARK  137  A    between atoms: _333  and  _335
REMARK  138  A    between atoms: _335  and  _336
REMARK  139  A    between atoms: _339  and  _341
REMARK  140  A    between atoms: _341  and  _342
REMARK  141  A    between atoms: _341  and  _344
REMARK  142  A    between atoms: _344  and  _345
REMARK  143  A    between atoms: _348  and  _350
REMARK  144  A    between atoms: _350  and  _351
REMARK  145  A    between atoms: _350  and  _353
REMARK  146  A    between atoms: _353  and  _354
REMARK  147  A    between atoms: _357  and  _359
REMARK  148  A    between atoms: _359  and  _360
REMARK  149  A    between atoms: _359  and  _362
REMARK  150  A    between atoms: _362  and  _363
REMARK  151  A    between atoms: _366  and  _368
REMARK  152  A    between atoms: _368  and  _369
REMARK  153  A    between atoms: _368  and  _371
REMARK  154  A    between atoms: _374  and  _376
REMARK  155  A    between atoms: _376  and  _377
REMARK  156  A    between atoms: _376  and  _379
REMARK  157  A    between atoms: _379  and  _380
REMARK  158  A    between atoms: _380  and  _381
REMARK  159  A    between atoms: _381  and  _382
REMARK  160  A    between atoms: _382  and  _383
REMARK  161  A    between atoms: _387  and  _389
REMARK  162  A    between atoms: _389  and  _390
REMARK  163  A    between atoms: _389  and  _392
REMARK  164  A    between atoms: _392  and  _393
REMARK  165  A    between atoms: _393  and  _394
REMARK  166  A    between atoms: _396  and  _398
REMARK  167  A    between atoms: _398  and  _399
REMARK  168  A    between atoms: _398  and  _401
REMARK  169  A    between atoms: _401  and  _402
REMARK  170  A    between atoms: _405  and  _407
REMARK  171  A    between atoms: _407  and  _408
REMARK  172  A    between atoms: _410  and  _412
REMARK  173  A    between atoms: _412  and  _413
REMARK  174  A    between atoms: _415  and  _417
REMARK  175  A    between atoms: _417  and  _418
REMARK  176  A    between atoms: _417  and  _420
REMARK  177  A    between atoms: _423  and  _425
REMARK  178  A    between atoms: _425  and  _426
REMARK  179  A    between atoms: _428  and  _430
REMARK  180  A    between atoms: _430  and  _431
REMARK  181  A    between atoms: _433  and  _435
REMARK  182  A    between atoms: _435  and  _436
REMARK  183  A    between atoms: _435  and  _438
REMARK  184  A    between atoms: _438  and  _439
REMARK  185  A    between atoms: _445  and  _447
REMARK  186  A    between atoms: _447  and  _448
REMARK  187  A    between atoms: _447  and  _450
REMARK  188  A    between atoms: _450  and  _451
REMARK  189  A    between atoms: _454  and  _456
REMARK  190  A    between atoms: _456  and  _457
REMARK  191  A    between atoms: _456  and  _459
REMARK  192  A    between atoms: _459  and  _460
REMARK  193  A    between atoms: _463  and  _465
REMARK  194  A    between atoms: _465  and  _466
REMARK  195  A    between atoms: _465  and  _468
REMARK  196  A    between atoms: _468  and  _469
REMARK  197  A    between atoms: _473  and  _474
REMARK  198  A    between atoms: _479  and  _481
REMARK  199  A    between atoms: _481  and  _482
REMARK  200  A    between atoms: _481  and  _484
REMARK  201  A    between atoms: _487  and  _489
REMARK  202  A    between atoms: _489  and  _490
REMARK  203  A    between atoms: _489  and  _492
REMARK  204  A    between atoms: _492  and  _493
REMARK  205  A    between atoms: _498  and  _500
REMARK  206  A    between atoms: _500  and  _501
REMARK  207  A    between atoms: _500  and  _503
REMARK  208  A    between atoms: _503  and  _504
REMARK  209  A    between atoms: _507  and  _509
REMARK  210  A    between atoms: _509  and  _510
REMARK  211  A    between atoms: _509  and  _512
REMARK  212  A    between atoms: _512  and  _513
REMARK  213  A    between atoms: _516  and  _518
REMARK  214  A    between atoms: _518  and  _519
REMARK  215  A    between atoms: _521  and  _523
REMARK  216  A    between atoms: _523  and  _524
REMARK  217  A    between atoms: _523  and  _526
REMARK  218  A    between atoms: _526  and  _527
REMARK  219  A    between atoms: _527  and  _528
REMARK  220  A    between atoms: _528  and  _529
REMARK  221  A    between atoms: _538  and  _540
REMARK  222  A    between atoms: _540  and  _541
REMARK  223  A    between atoms: _540  and  _543
REMARK  224  A    between atoms: _543  and  _544
REMARK                            x       y       z     vdW  Elec       q    Type
REMARK                         _______ _______ _______ _____ _____    ______ ____
ROOT
ATOM      1  O   HOH     1       7.307  24.093  18.238  0.00  0.00    +0.000 OA
ENDROOT
TORSDOF 0
REMARK  Name = ../refined-set-2016/2qd6/2qd6_pocket.pdb
REMARK  224 active torsions:
REMARK  status: ('A' for Active; 'I' for Inactive)
REMARK    1  A    between atoms: _1  and  _3
REMARK    2  A    between atoms: _3  and  _4
REMARK    3  A    between atoms: _3  and  _6
REMARK    4  A    between atoms: _6  and  _7
REMARK    5  A    between atoms: _7  and  _8
REMARK    6  A    between atoms: _8  and  _9
REMARK    7  A    between atoms: _18  and  _20
REMARK    8  A    between atoms: _20  and  _21
REMARK    9  A    between atoms: _20  and  _23
REMARK   10  A    between atoms: _23  and  _24
REMARK   11  A    between atoms: _27  and  _29
REMARK   12  A    between atoms: _29  and  _30
REMARK   13  A    between atoms: _29  and  _32
REMARK   14  A    between atoms: _32  and  _33
REMARK   15  A    between atoms: _36  and  _38
REMARK   16  A    between atoms: _38  and  _39
REMARK   17  A    between atoms: _38  and  _41
REMARK   18  A    between atoms: _41  and  _42
REMARK   19  A    between atoms: _45  and  _47
REMARK   20  A    between atoms: _47  and  _48
REMARK   21  A    between atoms: _47  and  _50
REMARK   22  A    between atoms: _50  and  _51
REMARK   23  A    between atoms: _54  and  _56
REMARK   24  A    between atoms: _56  and  _57
REMARK   25  A    between atoms: _59  and  _61
REMARK   26  A    between atoms: _61  and  _62
REMARK   27  A    between atoms: _65  and  _67
REMARK   28  A    between atoms: _67  and  _68
REMARK   29  A    between atoms: _67  and  _70
REMARK   30  A    between atoms: _70  and  _71
REMARK   31  A    between atoms: _74  and  _76
REMARK   32  A    between atoms: _76  and  _77
REMARK   33  A    between atoms: _76  and  _79
REMARK   34  A    between atoms: _79  and  _80
REMARK   35  A    between atoms: _83  and  _85
REMARK   36  A    between atoms: _85  and  _86
REMARK   37  A    between atoms: _85  and  _88
REMARK   38  A    between atoms: _88  and  _89
REMARK   39  A    between atoms: _92  and  _94
REMARK   40  A    between atoms: _94  and  _95
REMARK   41  A    between atoms: _94  and  _97
REMARK   42  A    between atoms: _100  and  _102
REMARK   43  A    between atoms: _102  and  _103
REMARK   44  A    between atoms: _102  and  _105
REMARK   45  A    between atoms: _105  and  _106
REMARK   46  A    between atoms: _106  and  _107
REMARK   47  A    between atoms: _107  and  _108
REMARK   48  A    between atoms: _108  and  _109
REMARK   49  A    between atoms: _113  and  _115
REMARK   50  A    between atoms: _115  and  _116
REMARK   51  A    between atoms: _115  and  _118
REMARK   52  A    between atoms: _118  and  _119
REMARK   53  A    between atoms: _119  and  _120
REMARK   54  A    between atoms: _122  and  _124
REMARK   55  A    between atoms: _124  and  _125
REMARK   56  A    between atoms: _124  and  _127
REMARK   57  A    between atoms: _127  and  _128
REMARK   58  A    between atoms: _131  and  _133
REMARK   59  A    between atoms: _133  and  _134
REMARK   60  A    between atoms: _136  and  _138
REMARK   61  A    between atoms: _138  and  _139
REMARK   62  A    between atoms: _141  and  _143
REMARK   63  A    between atoms: _143  and  _144
REMARK   64  A    between atoms: _143  and  _146
REMARK   65  A    between atoms: _149  and  _151
REMARK   66  A    between atoms: _151  and  _152
REMARK   67  A    between atoms: _154  and  _156
REMARK   68  A    between atoms: _156  and  _157
REMARK   69  A    between atoms: _159  and  _161
REMARK   70  A    between atoms: _161  and  _162
REMARK   71  A    between atoms: _161  and  _164
REMARK   72  A    between atoms: _164  and  _165
REMARK   73  A    between atoms: _171  and  _173
REMARK   74  A    between atoms: _173  and  _174
REMARK   75  A    between atoms: _173  and  _176
REMARK   76  A    between atoms: _176  and  _177
REMARK   77  A    between atoms: _180  and  _182
REMARK   78  A    between atoms: _182  and  _183
REMARK   79  A    between atoms: _182  and  _185
REMARK   80  A    between atoms: _185  and  _186
REMARK   81  A    between atoms: _189  and  _191
REMARK   82  A    between atoms: _191  and  _192
REMARK   83  A    between atoms: _191  and  _194
REMARK   84  A    between atoms: _194  and  _195
REMARK   85  A    between atoms: _199  and  _200
REMARK   86  A    between atoms: _205  and  _207
REMARK   87  A    between atoms: _207  and  _208
REMARK   88  A    between atoms: _207  and  _210
REMARK   89  A    between atoms: _213  and  _215
REMARK   90  A    between atoms: _215  and  _216
REMARK   91  A    between atoms: _215  and  _218
REMARK   92  A    between atoms: _218  and  _219
REMARK   93  A    between atoms: _224  and  _226
REMARK   94  A    between atoms: _226  and  _227
REMARK   95  A    between atoms: _226  and  _229
REMARK   96  A    between atoms: _229  and  _230
REMARK   97  A    between atoms: _233  and  _235
REMARK   98  A    between atoms: _235  and  _236
REMARK   99  A    between atoms: _235  and  _238
REMARK  100  A    between atoms: _238  and  _239
REMARK  101  A    between atoms: _242  and  _244
REMARK  102  A    between atoms: _244  and  _245
REMARK  103  A    between atoms: _247  and  _249
REMARK  104  A    between atoms: _249  and  _250
REMARK  105  A    between atoms: _249  and  _252
REMARK  106  A    between atoms: _252  and  _253
REMARK  107  A    between atoms: _253  and  _254
REMARK  108  A    between atoms: _254  and  _255
REMARK  109  A    between atoms: _264  and  _266
REMARK  110  A    between atoms: _266  and  _267
REMARK  111  A    between atoms: _266  and  _269
REMARK  112  A    between atoms: _269  and  _270
REMARK  113  A    between atoms: _275  and  _277
REMARK  114  A    between atoms: _277  and  _278
REMARK  115  A    between atoms: _277  and  _280
REMARK  116  A    between atoms: _280  and  _281
REMARK  117  A    between atoms: _281  and  _282
REMARK  118  A    between atoms: _282  and  _283
REMARK  119  A    between atoms: _292  and  _294
REMARK  120  A    between atoms: _294  and  _295
REMARK  121  A    between atoms: _294  and  _297
REMARK  122  A    between atoms: _297  and  _298
REMARK  123  A    between atoms: _301  and  _303
REMARK  124  A    between atoms: _303  and  _304
REMARK  125  A    between atoms: _303  and  _306
REMARK  126  A    between atoms: _306  and  _307
REMARK  127  A    between atoms: _310  and  _312
REMARK  128  A    between atoms: _312  and  _313
REMARK  129  A    between atoms: _312  and  _315
REMARK  130  A    between atoms: _315  and  _316
REMARK  131  A    between atoms: _319  and  _321
REMARK  132  A    between atoms: _321  and  _322
REMARK  133  A    between atoms: _321  and  _324
REMARK  134  A    between atoms: _324  and  _325
REMARK  135  A    between atoms: _328  and  _330
REMARK  136  A    between atoms: _330  and  _331
REMARK  137  A    between atoms: _333  and  _335
REMARK  138  A    between atoms: _335  and  _336
REMARK  139  A    between atoms: _339  and  _341
REMARK  140  A    between atoms: _341  and  _342
REMARK  141  A    between atoms: _341  and  _344
REMARK  142  A    between atoms: _344  and  _345
REMARK  143  A    between atoms: _348  and  _350
REMARK  144  A    between atoms: _350  and  _351
REMARK  145  A    between atoms: _350  and  _353
REMARK  146  A    between atoms: _353  and  _354
REMARK  147  A    between atoms: _357  and  _359
REMARK  148  A    between atoms: _359  and  _360
REMARK  149  A    between atoms: _359  and  _362
REMARK  150  A    between atoms: _362  and  _363
REMARK  151  A    between atoms: _366  and  _368
REMARK  152  A    between atoms: _368  and  _369
REMARK  153  A    between atoms: _368  and  _371
REMARK  154  A    between atoms: _374  and  _376
REMARK  155  A    between atoms: _376  and  _377
REMARK  156  A    between atoms: _376  and  _379
REMARK  157  A    between atoms: _379  and  _380
REMARK  158  A    between atoms: _380  and  _381
REMARK  159  A    between atoms: _381  and  _382
REMARK  160  A    between atoms: _382  and  _383
REMARK  161  A    between atoms: _387  and  _389
REMARK  162  A    between atoms: _389  and  _390
REMARK  163  A    between atoms: _389  and  _392
REMARK  164  A    between atoms: _392  and  _393
REMARK  165  A    between atoms: _393  and  _394
REMARK  166  A    between atoms: _396  and  _398
REMARK  167  A    between atoms: _398  and  _399
REMARK  168  A    between atoms: _398  and  _401
REMARK  169  A    between atoms: _401  and  _402
REMARK  170  A    between atoms: _405  and  _407
REMARK  171  A    between atoms: _407  and  _408
REMARK  172  A    between atoms: _410  and  _412
REMARK  173  A    between atoms: _412  and  _413
REMARK  174  A    between atoms: _415  and  _417
REMARK  175  A    between atoms: _417  and  _418
REMARK  176  A    between atoms: _417  and  _420
REMARK  177  A    between atoms: _423  and  _425
REMARK  178  A    between atoms: _425  and  _426
REMARK  179  A    between atoms: _428  and  _430
REMARK  180  A    between atoms: _430  and  _431
REMARK  181  A    between atoms: _433  and  _435
REMARK  182  A    between atoms: _435  and  _436
REMARK  183  A    between atoms: _435  and  _438
REMARK  184  A    between atoms: _438  and  _439
REMARK  185  A    between atoms: _445  and  _447
REMARK  186  A    between atoms: _447  and  _448
REMARK  187  A    between atoms: _447  and  _450
REMARK  188  A    between atoms: _450  and  _451
REMARK  189  A    between atoms: _454  and  _456
REMARK  190  A    between atoms: _456  and  _457
REMARK  191  A    between atoms: _456  and  _459
REMARK  192  A    between atoms: _459  and  _460
REMARK  193  A    between atoms: _463  and  _465
REMARK  194  A    between atoms: _465  and  _466
REMARK  195  A    between atoms: _465  and  _468
REMARK  196  A    between atoms: _468  and  _469
REMARK  197  A    between atoms: _473  and  _474
REMARK  198  A    between atoms: _479  and  _481
REMARK  199  A    between atoms: _481  and  _482
REMARK  200  A    between atoms: _481  and  _484
REMARK  201  A    between atoms: _487  and  _489
REMARK  202  A    between atoms: _489  and  _490
REMARK  203  A    between atoms: _489  and  _492
REMARK  204  A    between atoms: _492  and  _493
REMARK  205  A    between atoms: _498  and  _500
REMARK  206  A    between atoms: _500  and  _501
REMARK  207  A    between atoms: _500  and  _503
REMARK  208  A    between atoms: _503  and  _504
REMARK  209  A    between atoms: _507  and  _509
REMARK  210  A    between atoms: _509  and  _510
REMARK  211  A    between atoms: _509  and  _512
REMARK  212  A    between atoms: _512  and  _513
REMARK  213  A    between atoms: _516  and  _518
REMARK  214  A    between atoms: _518  and  _519
REMARK  215  A    between atoms: _521  and  _523
REMARK  216  A    between atoms: _523  and  _524
REMARK  217  A    between atoms: _523  and  _526
REMARK  218  A    between atoms: _526  and  _527
REMARK  219  A    between atoms: _527  and  _528
REMARK  220  A    between atoms: _528  and  _529
REMARK  221  A    between atoms: _538  and  _540
REMARK  222  A    between atoms: _540  and  _541
REMARK  223  A    between atoms: _540  and  _543
REMARK  224  A    between atoms: _543  and  _544
REMARK                            x       y       z     vdW  Elec       q    Type
REMARK                         _______ _______ _______ _____ _____    ______ ____
ROOT
ATOM      1  O   HOH     1       9.152  16.200  26.654  0.00  0.00    +0.000 OA
ENDROOT
TORSDOF 0
REMARK  Name = ../refined-set-2016/2qd6/2qd6_pocket.pdb
REMARK  224 active torsions:
REMARK  status: ('A' for Active; 'I' for Inactive)
REMARK    1  A    between atoms: _1  and  _3
REMARK    2  A    between atoms: _3  and  _4
REMARK    3  A    between atoms: _3  and  _6
REMARK    4  A    between atoms: _6  and  _7
REMARK    5  A    between atoms: _7  and  _8
REMARK    6  A    between atoms: _8  and  _9
REMARK    7  A    between atoms: _18  and  _20
REMARK    8  A    between atoms: _20  and  _21
REMARK    9  A    between atoms: _20  and  _23
REMARK   10  A    between atoms: _23  and  _24
REMARK   11  A    between atoms: _27  and  _29
REMARK   12  A    between atoms: _29  and  _30
REMARK   13  A    between atoms: _29  and  _32
REMARK   14  A    between atoms: _32  and  _33
REMARK   15  A    between atoms: _36  and  _38
REMARK   16  A    between atoms: _38  and  _39
REMARK   17  A    between atoms: _38  and  _41
REMARK   18  A    between atoms: _41  and  _42
REMARK   19  A    between atoms: _45  and  _47
REMARK   20  A    between atoms: _47  and  _48
REMARK   21  A    between atoms: _47  and  _50
REMARK   22  A    between atoms: _50  and  _51
REMARK   23  A    between atoms: _54  and  _56
REMARK   24  A    between atoms: _56  and  _57
REMARK   25  A    between atoms: _59  and  _61
REMARK   26  A    between atoms: _61  and  _62
REMARK   27  A    between atoms: _65  and  _67
REMARK   28  A    between atoms: _67  and  _68
REMARK   29  A    between atoms: _67  and  _70
REMARK   30  A    between atoms: _70  and  _71
REMARK   31  A    between atoms: _74  and  _76
REMARK   32  A    between atoms: _76  and  _77
REMARK   33  A    between atoms: _76  and  _79
REMARK   34  A    between atoms: _79  and  _80
REMARK   35  A    between atoms: _83  and  _85
REMARK   36  A    between atoms: _85  and  _86
REMARK   37  A    between atoms: _85  and  _88
REMARK   38  A    between atoms: _88  and  _89
REMARK   39  A    between atoms: _92  and  _94
REMARK   40  A    between atoms: _94  and  _95
REMARK   41  A    between atoms: _94  and  _97
REMARK   42  A    between atoms: _100  and  _102
REMARK   43  A    between atoms: _102  and  _103
REMARK   44  A    between atoms: _102  and  _105
REMARK   45  A    between atoms: _105  and  _106
REMARK   46  A    between atoms: _106  and  _107
REMARK   47  A    between atoms: _107  and  _108
REMARK   48  A    between atoms: _108  and  _109
REMARK   49  A    between atoms: _113  and  _115
REMARK   50  A    between atoms: _115  and  _116
REMARK   51  A    between atoms: _115  and  _118
REMARK   52  A    between atoms: _118  and  _119
REMARK   53  A    between atoms: _119  and  _120
REMARK   54  A    between atoms: _122  and  _124
REMARK   55  A    between atoms: _124  and  _125
REMARK   56  A    between atoms: _124  and  _127
REMARK   57  A    between atoms: _127  and  _128
REMARK   58  A    between atoms: _131  and  _133
REMARK   59  A    between atoms: _133  and  _134
REMARK   60  A    between atoms: _136  and  _138
REMARK   61  A    between atoms: _138  and  _139
REMARK   62  A    between atoms: _141  and  _143
REMARK   63  A    between atoms: _143  and  _144
REMARK   64  A    between atoms: _143  and  _146
REMARK   65  A    between atoms: _149  and  _151
REMARK   66  A    between atoms: _151  and  _152
REMARK   67  A    between atoms: _154  and  _156
REMARK   68  A    between atoms: _156  and  _157
REMARK   69  A    between atoms: _159  and  _161
REMARK   70  A    between atoms: _161  and  _162
REMARK   71  A    between atoms: _161  and  _164
REMARK   72  A    between atoms: _164  and  _165
REMARK   73  A    between atoms: _171  and  _173
REMARK   74  A    between atoms: _173  and  _174
REMARK   75  A    between atoms: _173  and  _176
REMARK   76  A    between atoms: _176  and  _177
REMARK   77  A    between atoms: _180  and  _182
REMARK   78  A    between atoms: _182  and  _183
REMARK   79  A    between atoms: _182  and  _185
REMARK   80  A    between atoms: _185  and  _186
REMARK   81  A    between atoms: _189  and  _191
REMARK   82  A    between atoms: _191  and  _192
REMARK   83  A    between atoms: _191  and  _194
REMARK   84  A    between atoms: _194  and  _195
REMARK   85  A    between atoms: _199  and  _200
REMARK   86  A    between atoms: _205  and  _207
REMARK   87  A    between atoms: _207  and  _208
REMARK   88  A    between atoms: _207  and  _210
REMARK   89  A    between atoms: _213  and  _215
REMARK   90  A    between atoms: _215  and  _216
REMARK   91  A    between atoms: _215  and  _218
REMARK   92  A    between atoms: _218  and  _219
REMARK   93  A    between atoms: _224  and  _226
REMARK   94  A    between atoms: _226  and  _227
REMARK   95  A    between atoms: _226  and  _229
REMARK   96  A    between atoms: _229  and  _230
REMARK   97  A    between atoms: _233  and  _235
REMARK   98  A    between atoms: _235  and  _236
REMARK   99  A    between atoms: _235  and  _238
REMARK  100  A    between atoms: _238  and  _239
REMARK  101  A    between atoms: _242  and  _244
REMARK  102  A    between atoms: _244  and  _245
REMARK  103  A    between atoms: _247  and  _249
REMARK  104  A    between atoms: _249  and  _250
REMARK  105  A    between atoms: _249  and  _252
REMARK  106  A    between atoms: _252  and  _253
REMARK  107  A    between atoms: _253  and  _254
REMARK  108  A    between atoms: _254  and  _255
REMARK  109  A    between atoms: _264  and  _266
REMARK  110  A    between atoms: _266  and  _267
REMARK  111  A    between atoms: _266  and  _269
REMARK  112  A    between atoms: _269  and  _270
REMARK  113  A    between atoms: _275  and  _277
REMARK  114  A    between atoms: _277  and  _278
REMARK  115  A    between atoms: _277  and  _280
REMARK  116  A    between atoms: _280  and  _281
REMARK  117  A    between atoms: _281  and  _282
REMARK  118  A    between atoms: _282  and  _283
REMARK  119  A    between atoms: _292  and  _294
REMARK  120  A    between atoms: _294  and  _295
REMARK  121  A    between atoms: _294  and  _297
REMARK  122  A    between atoms: _297  and  _298
REMARK  123  A    between atoms: _301  and  _303
REMARK  124  A    between atoms: _303  and  _304
REMARK  125  A    between atoms: _303  and  _306
REMARK  126  A    between atoms: _306  and  _307
REMARK  127  A    between atoms: _310  and  _312
REMARK  128  A    between atoms: _312  and  _313
REMARK  129  A    between atoms: _312  and  _315
REMARK  130  A    between atoms: _315  and  _316
REMARK  131  A    between atoms: _319  and  _321
REMARK  132  A    between atoms: _321  and  _322
REMARK  133  A    between atoms: _321  and  _324
REMARK  134  A    between atoms: _324  and  _325
REMARK  135  A    between atoms: _328  and  _330
REMARK  136  A    between atoms: _330  and  _331
REMARK  137  A    between atoms: _333  and  _335
REMARK  138  A    between atoms: _335  and  _336
REMARK  139  A    between atoms: _339  and  _341
REMARK  140  A    between atoms: _341  and  _342
REMARK  141  A    between atoms: _341  and  _344
REMARK  142  A    between atoms: _344  and  _345
REMARK  143  A    between atoms: _348  and  _350
REMARK  144  A    between atoms: _350  and  _351
REMARK  145  A    between atoms: _350  and  _353
REMARK  146  A    between atoms: _353  and  _354
REMARK  147  A    between atoms: _357  and  _359
REMARK  148  A    between atoms: _359  and  _360
REMARK  149  A    between atoms: _359  and  _362
REMARK  150  A    between atoms: _362  and  _363
REMARK  151  A    between atoms: _366  and  _368
REMARK  152  A    between atoms: _368  and  _369
REMARK  153  A    between atoms: _368  and  _371
REMARK  154  A    between atoms: _374  and  _376
REMARK  155  A    between atoms: _376  and  _377
REMARK  156  A    between atoms: _376  and  _379
REMARK  157  A    between atoms: _379  and  _380
REMARK  158  A    between atoms: _380  and  _381
REMARK  159  A    between atoms: _381  and  _382
REMARK  160  A    between atoms: _382  and  _383
REMARK  161  A    between atoms: _387  and  _389
REMARK  162  A    between atoms: _389  and  _390
REMARK  163  A    between atoms: _389  and  _392
REMARK  164  A    between atoms: _392  and  _393
REMARK  165  A    between atoms: _393  and  _394
REMARK  166  A    between atoms: _396  and  _398
REMARK  167  A    between atoms: _398  and  _399
REMARK  168  A    between atoms: _398  and  _401
REMARK  169  A    between atoms: _401  and  _402
REMARK  170  A    between atoms: _405  and  _407
REMARK  171  A    between atoms: _407  and  _408
REMARK  172  A    between atoms: _410  and  _412
REMARK  173  A    between atoms: _412  and  _413
REMARK  174  A    between atoms: _415  and  _417
REMARK  175  A    between atoms: _417  and  _418
REMARK  176  A    between atoms: _417  and  _420
REMARK  177  A    between atoms: _423  and  _425
REMARK  178  A    between atoms: _425  and  _426
REMARK  179  A    between atoms: _428  and  _430
REMARK  180  A    between atoms: _430  and  _431
REMARK  181  A    between atoms: _433  and  _435
REMARK  182  A    between atoms: _435  and  _436
REMARK  183  A    between atoms: _435  and  _438
REMARK  184  A    between atoms: _438  and  _439
REMARK  185  A    between atoms: _445  and  _447
REMARK  186  A    between atoms: _447  and  _448
REMARK  187  A    between atoms: _447  and  _450
REMARK  188  A    between atoms: _450  and  _451
REMARK  189  A    between atoms: _454  and  _456
REMARK  190  A    between atoms: _456  and  _457
REMARK  191  A    between atoms: _456  and  _459
REMARK  192  A    between atoms: _459  and  _460
REMARK  193  A    between atoms: _463  and  _465
REMARK  194  A    between atoms: _465  and  _466
REMARK  195  A    between atoms: _465  and  _468
REMARK  196  A    between atoms: _468  and  _469
REMARK  197  A    between atoms: _473  and  _474
REMARK  198  A    between atoms: _479  and  _481
REMARK  199  A    between atoms: _481  and  _482
REMARK  200  A    between atoms: _481  and  _484
REMARK  201  A    between atoms: _487  and  _489
REMARK  202  A    between atoms: _489  and  _490
REMARK  203  A    between atoms: _489  and  _492
REMARK  204  A    between atoms: _492  and  _493
REMARK  205  A    between atoms: _498  and  _500
REMARK  206  A    between atoms: _500  and  _501
REMARK  207  A    between atoms: _500  and  _503
REMARK  208  A    between atoms: _503  and  _504
REMARK  209  A    between atoms: _507  and  _509
REMARK  210  A    between atoms: _509  and  _510
REMARK  211  A    between atoms: _509  and  _512
REMARK  212  A    between atoms: _512  and  _513
REMARK  213  A    between atoms: _516  and  _518
REMARK  214  A    between atoms: _518  and  _519
REMARK  215  A    between atoms: _521  and  _523
REMARK  216  A    between atoms: _523  and  _524
REMARK  217  A    between atoms: _523  and  _526
REMARK  218  A    between atoms: _526  and  _527
REMARK  219  A    between atoms: _527  and  _528
REMARK  220  A    between atoms: _528  and  _529
REMARK  221  A    between atoms: _538  and  _540
REMARK  222  A    between atoms: _540  and  _541
REMARK  223  A    between atoms: _540  and  _543
REMARK  224  A    between atoms: _543  and  _544
REMARK                            x       y       z     vdW  Elec       q    Type
REMARK                         _______ _______ _______ _____ _____    ______ ____
ROOT
ATOM      1  O   HOH     1       8.642  22.322  16.586  0.00  0.00    +0.000 OA
ENDROOT
TORSDOF 0
REMARK  Name = ../refined-set-2016/2qd6/2qd6_pocket.pdb
REMARK  224 active torsions:
REMARK  status: ('A' for Active; 'I' for Inactive)
REMARK    1  A    between atoms: _1  and  _3
REMARK    2  A    between atoms: _3  and  _4
REMARK    3  A    between atoms: _3  and  _6
REMARK    4  A    between atoms: _6  and  _7
REMARK    5  A    between atoms: _7  and  _8
REMARK    6  A    between atoms: _8  and  _9
REMARK    7  A    between atoms: _18  and  _20
REMARK    8  A    between atoms: _20  and  _21
REMARK    9  A    between atoms: _20  and  _23
REMARK   10  A    between atoms: _23  and  _24
REMARK   11  A    between atoms: _27  and  _29
REMARK   12  A    between atoms: _29  and  _30
REMARK   13  A    between atoms: _29  and  _32
REMARK   14  A    between atoms: _32  and  _33
REMARK   15  A    between atoms: _36  and  _38
REMARK   16  A    between atoms: _38  and  _39
REMARK   17  A    between atoms: _38  and  _41
REMARK   18  A    between atoms: _41  and  _42
REMARK   19  A    between atoms: _45  and  _47
REMARK   20  A    between atoms: _47  and  _48
REMARK   21  A    between atoms: _47  and  _50
REMARK   22  A    between atoms: _50  and  _51
REMARK   23  A    between atoms: _54  and  _56
REMARK   24  A    between atoms: _56  and  _57
REMARK   25  A    between atoms: _59  and  _61
REMARK   26  A    between atoms: _61  and  _62
REMARK   27  A    between atoms: _65  and  _67
REMARK   28  A    between atoms: _67  and  _68
REMARK   29  A    between atoms: _67  and  _70
REMARK   30  A    between atoms: _70  and  _71
REMARK   31  A    between atoms: _74  and  _76
REMARK   32  A    between atoms: _76  and  _77
REMARK   33  A    between atoms: _76  and  _79
REMARK   34  A    between atoms: _79  and  _80
REMARK   35  A    between atoms: _83  and  _85
REMARK   36  A    between atoms: _85  and  _86
REMARK   37  A    between atoms: _85  and  _88
REMARK   38  A    between atoms: _88  and  _89
REMARK   39  A    between atoms: _92  and  _94
REMARK   40  A    between atoms: _94  and  _95
REMARK   41  A    between atoms: _94  and  _97
REMARK   42  A    between atoms: _100  and  _102
REMARK   43  A    between atoms: _102  and  _103
REMARK   44  A    between atoms: _102  and  _105
REMARK   45  A    between atoms: _105  and  _106
REMARK   46  A    between atoms: _106  and  _107
REMARK   47  A    between atoms: _107  and  _108
REMARK   48  A    between atoms: _108  and  _109
REMARK   49  A    between atoms: _113  and  _115
REMARK   50  A    between atoms: _115  and  _116
REMARK   51  A    between atoms: _115  and  _118
REMARK   52  A    between atoms: _118  and  _119
REMARK   53  A    between atoms: _119  and  _120
REMARK   54  A    between atoms: _122  and  _124
REMARK   55  A    between atoms: _124  and  _125
REMARK   56  A    between atoms: _124  and  _127
REMARK   57  A    between atoms: _127  and  _128
REMARK   58  A    between atoms: _131  and  _133
REMARK   59  A    between atoms: _133  and  _134
REMARK   60  A    between atoms: _136  and  _138
REMARK   61  A    between atoms: _138  and  _139
REMARK   62  A    between atoms: _141  and  _143
REMARK   63  A    between atoms: _143  and  _144
REMARK   64  A    between atoms: _143  and  _146
REMARK   65  A    between atoms: _149  and  _151
REMARK   66  A    between atoms: _151  and  _152
REMARK   67  A    between atoms: _154  and  _156
REMARK   68  A    between atoms: _156  and  _157
REMARK   69  A    between atoms: _159  and  _161
REMARK   70  A    between atoms: _161  and  _162
REMARK   71  A    between atoms: _161  and  _164
REMARK   72  A    between atoms: _164  and  _165
REMARK   73  A    between atoms: _171  and  _173
REMARK   74  A    between atoms: _173  and  _174
REMARK   75  A    between atoms: _173  and  _176
REMARK   76  A    between atoms: _176  and  _177
REMARK   77  A    between atoms: _180  and  _182
REMARK   78  A    between atoms: _182  and  _183
REMARK   79  A    between atoms: _182  and  _185
REMARK   80  A    between atoms: _185  and  _186
REMARK   81  A    between atoms: _189  and  _191
REMARK   82  A    between atoms: _191  and  _192
REMARK   83  A    between atoms: _191  and  _194
REMARK   84  A    between atoms: _194  and  _195
REMARK   85  A    between atoms: _199  and  _200
REMARK   86  A    between atoms: _205  and  _207
REMARK   87  A    between atoms: _207  and  _208
REMARK   88  A    between atoms: _207  and  _210
REMARK   89  A    between atoms: _213  and  _215
REMARK   90  A    between atoms: _215  and  _216
REMARK   91  A    between atoms: _215  and  _218
REMARK   92  A    between atoms: _218  and  _219
REMARK   93  A    between atoms: _224  and  _226
REMARK   94  A    between atoms: _226  and  _227
REMARK   95  A    between atoms: _226  and  _229
REMARK   96  A    between atoms: _229  and  _230
REMARK   97  A    between atoms: _233  and  _235
REMARK   98  A    between atoms: _235  and  _236
REMARK   99  A    between atoms: _235  and  _238
REMARK  100  A    between atoms: _238  and  _239
REMARK  101  A    between atoms: _242  and  _244
REMARK  102  A    between atoms: _244  and  _245
REMARK  103  A    between atoms: _247  and  _249
REMARK  104  A    between atoms: _249  and  _250
REMARK  105  A    between atoms: _249  and  _252
REMARK  106  A    between atoms: _252  and  _253
REMARK  107  A    between atoms: _253  and  _254
REMARK  108  A    between atoms: _254  and  _255
REMARK  109  A    between atoms: _264  and  _266
REMARK  110  A    between atoms: _266  and  _267
REMARK  111  A    between atoms: _266  and  _269
REMARK  112  A    between atoms: _269  and  _270
REMARK  113  A    between atoms: _275  and  _277
REMARK  114  A    between atoms: _277  and  _278
REMARK  115  A    between atoms: _277  and  _280
REMARK  116  A    between atoms: _280  and  _281
REMARK  117  A    between atoms: _281  and  _282
REMARK  118  A    between atoms: _282  and  _283
REMARK  119  A    between atoms: _292  and  _294
REMARK  120  A    between atoms: _294  and  _295
REMARK  121  A    between atoms: _294  and  _297
REMARK  122  A    between atoms: _297  and  _298
REMARK  123  A    between atoms: _301  and  _303
REMARK  124  A    between atoms: _303  and  _304
REMARK  125  A    between atoms: _303  and  _306
REMARK  126  A    between atoms: _306  and  _307
REMARK  127  A    between atoms: _310  and  _312
REMARK  128  A    between atoms: _312  and  _313
REMARK  129  A    between atoms: _312  and  _315
REMARK  130  A    between atoms: _315  and  _316
REMARK  131  A    between atoms: _319  and  _321
REMARK  132  A    between atoms: _321  and  _322
REMARK  133  A    between atoms: _321  and  _324
REMARK  134  A    between atoms: _324  and  _325
REMARK  135  A    between atoms: _328  and  _330
REMARK  136  A    between atoms: _330  and  _331
REMARK  137  A    between atoms: _333  and  _335
REMARK  138  A    between atoms: _335  and  _336
REMARK  139  A    between atoms: _339  and  _341
REMARK  140  A    between atoms: _341  and  _342
REMARK  141  A    between atoms: _341  and  _344
REMARK  142  A    between atoms: _344  and  _345
REMARK  143  A    between atoms: _348  and  _350
REMARK  144  A    between atoms: _350  and  _351
REMARK  145  A    between atoms: _350  and  _353
REMARK  146  A    between atoms: _353  and  _354
REMARK  147  A    between atoms: _357  and  _359
REMARK  148  A    between atoms: _359  and  _360
REMARK  149  A    between atoms: _359  and  _362
REMARK  150  A    between atoms: _362  and  _363
REMARK  151  A    between atoms: _366  and  _368
REMARK  152  A    between atoms: _368  and  _369
REMARK  153  A    between atoms: _368  and  _371
REMARK  154  A    between atoms: _374  and  _376
REMARK  155  A    between atoms: _376  and  _377
REMARK  156  A    between atoms: _376  and  _379
REMARK  157  A    between atoms: _379  and  _380
REMARK  158  A    between atoms: _380  and  _381
REMARK  159  A    between atoms: _381  and  _382
REMARK  160  A    between atoms: _382  and  _383
REMARK  161  A    between atoms: _387  and  _389
REMARK  162  A    between atoms: _389  and  _390
REMARK  163  A    between atoms: _389  and  _392
REMARK  164  A    between atoms: _392  and  _393
REMARK  165  A    between atoms: _393  and  _394
REMARK  166  A    between atoms: _396  and  _398
REMARK  167  A    between atoms: _398  and  _399
REMARK  168  A    between atoms: _398  and  _401
REMARK  169  A    between atoms: _401  and  _402
REMARK  170  A    between atoms: _405  and  _407
REMARK  171  A    between atoms: _407  and  _408
REMARK  172  A    between atoms: _410  and  _412
REMARK  173  A    between atoms: _412  and  _413
REMARK  174  A    between atoms: _415  and  _417
REMARK  175  A    between atoms: _417  and  _418
REMARK  176  A    between atoms: _417  and  _420
REMARK  177  A    between atoms: _423  and  _425
REMARK  178  A    between atoms: _425  and  _426
REMARK  179  A    between atoms: _428  and  _430
REMARK  180  A    between atoms: _430  and  _431
REMARK  181  A    between atoms: _433  and  _435
REMARK  182  A    between atoms: _435  and  _436
REMARK  183  A    between atoms: _435  and  _438
REMARK  184  A    between atoms: _438  and  _439
REMARK  185  A    between atoms: _445  and  _447
REMARK  186  A    between atoms: _447  and  _448
REMARK  187  A    between atoms: _447  and  _450
REMARK  188  A    between atoms: _450  and  _451
REMARK  189  A    between atoms: _454  and  _456
REMARK  190  A    between atoms: _456  and  _457
REMARK  191  A    between atoms: _456  and  _459
REMARK  192  A    between atoms: _459  and  _460
REMARK  193  A    between atoms: _463  and  _465
REMARK  194  A    between atoms: _465  and  _466
REMARK  195  A    between atoms: _465  and  _468
REMARK  196  A    between atoms: _468  and  _469
REMARK  197  A    between atoms: _473  and  _474
REMARK  198  A    between atoms: _479  and  _481
REMARK  199  A    between atoms: _481  and  _482
REMARK  200  A    between atoms: _481  and  _484
REMARK  201  A    between atoms: _487  and  _489
REMARK  202  A    between atoms: _489  and  _490
REMARK  203  A    between atoms: _489  and  _492
REMARK  204  A    between atoms: _492  and  _493
REMARK  205  A    between atoms: _498  and  _500
REMARK  206  A    between atoms: _500  and  _501
REMARK  207  A    between atoms: _500  and  _503
REMARK  208  A    between atoms: _503  and  _504
REMARK  209  A    between atoms: _507  and  _509
REMARK  210  A    between atoms: _509  and  _510
REMARK  211  A    between atoms: _509  and  _512
REMARK  212  A    between atoms: _512  and  _513
REMARK  213  A    between atoms: _516  and  _518
REMARK  214  A    between atoms: _518  and  _519
REMARK  215  A    between atoms: _521  and  _523
REMARK  216  A    between atoms: _523  and  _524
REMARK  217  A    between atoms: _523  and  _526
REMARK  218  A    between atoms: _526  and  _527
REMARK  219  A    between atoms: _527  and  _528
REMARK  220  A    between atoms: _528  and  _529
REMARK  221  A    between atoms: _538  and  _540
REMARK  222  A    between atoms: _540  and  _541
REMARK  223  A    between atoms: _540  and  _543
REMARK  224  A    between atoms: _543  and  _544
REMARK                            x       y       z     vdW  Elec       q    Type
REMARK                         _______ _______ _______ _____ _____    ______ ____
ROOT
ATOM      1  O   HOH     1      20.034  28.925  21.304  0.00  0.00    +0.000 OA
ENDROOT
TORSDOF 0
REMARK  Name = ../refined-set-2016/2qd6/2qd6_pocket.pdb
REMARK  224 active torsions:
REMARK  status: ('A' for Active; 'I' for Inactive)
REMARK    1  A    between atoms: _1  and  _3
REMARK    2  A    between atoms: _3  and  _4
REMARK    3  A    between atoms: _3  and  _6
REMARK    4  A    between atoms: _6  and  _7
REMARK    5  A    between atoms: _7  and  _8
REMARK    6  A    between atoms: _8  and  _9
REMARK    7  A    between atoms: _18  and  _20
REMARK    8  A    between atoms: _20  and  _21
REMARK    9  A    between atoms: _20  and  _23
REMARK   10  A    between atoms: _23  and  _24
REMARK   11  A    between atoms: _27  and  _29
REMARK   12  A    between atoms: _29  and  _30
REMARK   13  A    between atoms: _29  and  _32
REMARK   14  A    between atoms: _32  and  _33
REMARK   15  A    between atoms: _36  and  _38
REMARK   16  A    between atoms: _38  and  _39
REMARK   17  A    between atoms: _38  and  _41
REMARK   18  A    between atoms: _41  and  _42
REMARK   19  A    between atoms: _45  and  _47
REMARK   20  A    between atoms: _47  and  _48
REMARK   21  A    between atoms: _47  and  _50
REMARK   22  A    between atoms: _50  and  _51
REMARK   23  A    between atoms: _54  and  _56
REMARK   24  A    between atoms: _56  and  _57
REMARK   25  A    between atoms: _59  and  _61
REMARK   26  A    between atoms: _61  and  _62
REMARK   27  A    between atoms: _65  and  _67
REMARK   28  A    between atoms: _67  and  _68
REMARK   29  A    between atoms: _67  and  _70
REMARK   30  A    between atoms: _70  and  _71
REMARK   31  A    between atoms: _74  and  _76
REMARK   32  A    between atoms: _76  and  _77
REMARK   33  A    between atoms: _76  and  _79
REMARK   34  A    between atoms: _79  and  _80
REMARK   35  A    between atoms: _83  and  _85
REMARK   36  A    between atoms: _85  and  _86
REMARK   37  A    between atoms: _85  and  _88
REMARK   38  A    between atoms: _88  and  _89
REMARK   39  A    between atoms: _92  and  _94
REMARK   40  A    between atoms: _94  and  _95
REMARK   41  A    between atoms: _94  and  _97
REMARK   42  A    between atoms: _100  and  _102
REMARK   43  A    between atoms: _102  and  _103
REMARK   44  A    between atoms: _102  and  _105
REMARK   45  A    between atoms: _105  and  _106
REMARK   46  A    between atoms: _106  and  _107
REMARK   47  A    between atoms: _107  and  _108
REMARK   48  A    between atoms: _108  and  _109
REMARK   49  A    between atoms: _113  and  _115
REMARK   50  A    between atoms: _115  and  _116
REMARK   51  A    between atoms: _115  and  _118
REMARK   52  A    between atoms: _118  and  _119
REMARK   53  A    between atoms: _119  and  _120
REMARK   54  A    between atoms: _122  and  _124
REMARK   55  A    between atoms: _124  and  _125
REMARK   56  A    between atoms: _124  and  _127
REMARK   57  A    between atoms: _127  and  _128
REMARK   58  A    between atoms: _131  and  _133
REMARK   59  A    between atoms: _133  and  _134
REMARK   60  A    between atoms: _136  and  _138
REMARK   61  A    between atoms: _138  and  _139
REMARK   62  A    between atoms: _141  and  _143
REMARK   63  A    between atoms: _143  and  _144
REMARK   64  A    between atoms: _143  and  _146
REMARK   65  A    between atoms: _149  and  _151
REMARK   66  A    between atoms: _151  and  _152
REMARK   67  A    between atoms: _154  and  _156
REMARK   68  A    between atoms: _156  and  _157
REMARK   69  A    between atoms: _159  and  _161
REMARK   70  A    between atoms: _161  and  _162
REMARK   71  A    between atoms: _161  and  _164
REMARK   72  A    between atoms: _164  and  _165
REMARK   73  A    between atoms: _171  and  _173
REMARK   74  A    between atoms: _173  and  _174
REMARK   75  A    between atoms: _173  and  _176
REMARK   76  A    between atoms: _176  and  _177
REMARK   77  A    between atoms: _180  and  _182
REMARK   78  A    between atoms: _182  and  _183
REMARK   79  A    between atoms: _182  and  _185
REMARK   80  A    between atoms: _185  and  _186
REMARK   81  A    between atoms: _189  and  _191
REMARK   82  A    between atoms: _191  and  _192
REMARK   83  A    between atoms: _191  and  _194
REMARK   84  A    between atoms: _194  and  _195
REMARK   85  A    between atoms: _199  and  _200
REMARK   86  A    between atoms: _205  and  _207
REMARK   87  A    between atoms: _207  and  _208
REMARK   88  A    between atoms: _207  and  _210
REMARK   89  A    between atoms: _213  and  _215
REMARK   90  A    between atoms: _215  and  _216
REMARK   91  A    between atoms: _215  and  _218
REMARK   92  A    between atoms: _218  and  _219
REMARK   93  A    between atoms: _224  and  _226
REMARK   94  A    between atoms: _226  and  _227
REMARK   95  A    between atoms: _226  and  _229
REMARK   96  A    between atoms: _229  and  _230
REMARK   97  A    between atoms: _233  and  _235
REMARK   98  A    between atoms: _235  and  _236
REMARK   99  A    between atoms: _235  and  _238
REMARK  100  A    between atoms: _238  and  _239
REMARK  101  A    between atoms: _242  and  _244
REMARK  102  A    between atoms: _244  and  _245
REMARK  103  A    between atoms: _247  and  _249
REMARK  104  A    between atoms: _249  and  _250
REMARK  105  A    between atoms: _249  and  _252
REMARK  106  A    between atoms: _252  and  _253
REMARK  107  A    between atoms: _253  and  _254
REMARK  108  A    between atoms: _254  and  _255
REMARK  109  A    between atoms: _264  and  _266
REMARK  110  A    between atoms: _266  and  _267
REMARK  111  A    between atoms: _266  and  _269
REMARK  112  A    between atoms: _269  and  _270
REMARK  113  A    between atoms: _275  and  _277
REMARK  114  A    between atoms: _277  and  _278
REMARK  115  A    between atoms: _277  and  _280
REMARK  116  A    between atoms: _280  and  _281
REMARK  117  A    between atoms: _281  and  _282
REMARK  118  A    between atoms: _282  and  _283
REMARK  119  A    between atoms: _292  and  _294
REMARK  120  A    between atoms: _294  and  _295
REMARK  121  A    between atoms: _294  and  _297
REMARK  122  A    between atoms: _297  and  _298
REMARK  123  A    between atoms: _301  and  _303
REMARK  124  A    between atoms: _303  and  _304
REMARK  125  A    between atoms: _303  and  _306
REMARK  126  A    between atoms: _306  and  _307
REMARK  127  A    between atoms: _310  and  _312
REMARK  128  A    between atoms: _312  and  _313
REMARK  129  A    between atoms: _312  and  _315
REMARK  130  A    between atoms: _315  and  _316
REMARK  131  A    between atoms: _319  and  _321
REMARK  132  A    between atoms: _321  and  _322
REMARK  133  A    between atoms: _321  and  _324
REMARK  134  A    between atoms: _324  and  _325
REMARK  135  A    between atoms: _328  and  _330
REMARK  136  A    between atoms: _330  and  _331
REMARK  137  A    between atoms: _333  and  _335
REMARK  138  A    between atoms: _335  and  _336
REMARK  139  A    between atoms: _339  and  _341
REMARK  140  A    between atoms: _341  and  _342
REMARK  141  A    between atoms: _341  and  _344
REMARK  142  A    between atoms: _344  and  _345
REMARK  143  A    between atoms: _348  and  _350
REMARK  144  A    between atoms: _350  and  _351
REMARK  145  A    between atoms: _350  and  _353
REMARK  146  A    between atoms: _353  and  _354
REMARK  147  A    between atoms: _357  and  _359
REMARK  148  A    between atoms: _359  and  _360
REMARK  149  A    between atoms: _359  and  _362
REMARK  150  A    between atoms: _362  and  _363
REMARK  151  A    between atoms: _366  and  _368
REMARK  152  A    between atoms: _368  and  _369
REMARK  153  A    between atoms: _368  and  _371
REMARK  154  A    between atoms: _374  and  _376
REMARK  155  A    between atoms: _376  and  _377
REMARK  156  A    between atoms: _376  and  _379
REMARK  157  A    between atoms: _379  and  _380
REMARK  158  A    between atoms: _380  and  _381
REMARK  159  A    between atoms: _381  and  _382
REMARK  160  A    between atoms: _382  and  _383
REMARK  161  A    between atoms: _387  and  _389
REMARK  162  A    between atoms: _389  and  _390
REMARK  163  A    between atoms: _389  and  _392
REMARK  164  A    between atoms: _392  and  _393
REMARK  165  A    between atoms: _393  and  _394
REMARK  166  A    between atoms: _396  and  _398
REMARK  167  A    between atoms: _398  and  _399
REMARK  168  A    between atoms: _398  and  _401
REMARK  169  A    between atoms: _401  and  _402
REMARK  170  A    between atoms: _405  and  _407
REMARK  171  A    between atoms: _407  and  _408
REMARK  172  A    between atoms: _410  and  _412
REMARK  173  A    between atoms: _412  and  _413
REMARK  174  A    between atoms: _415  and  _417
REMARK  175  A    between atoms: _417  and  _418
REMARK  176  A    between atoms: _417  and  _420
REMARK  177  A    between atoms: _423  and  _425
REMARK  178  A    between atoms: _425  and  _426
REMARK  179  A    between atoms: _428  and  _430
REMARK  180  A    between atoms: _430  and  _431
REMARK  181  A    between atoms: _433  and  _435
REMARK  182  A    between atoms: _435  and  _436
REMARK  183  A    between atoms: _435  and  _438
REMARK  184  A    between atoms: _438  and  _439
REMARK  185  A    between atoms: _445  and  _447
REMARK  186  A    between atoms: _447  and  _448
REMARK  187  A    between atoms: _447  and  _450
REMARK  188  A    between atoms: _450  and  _451
REMARK  189  A    between atoms: _454  and  _456
REMARK  190  A    between atoms: _456  and  _457
REMARK  191  A    between atoms: _456  and  _459
REMARK  192  A    between atoms: _459  and  _460
REMARK  193  A    between atoms: _463  and  _465
REMARK  194  A    between atoms: _465  and  _466
REMARK  195  A    between atoms: _465  and  _468
REMARK  196  A    between atoms: _468  and  _469
REMARK  197  A    between atoms: _473  and  _474
REMARK  198  A    between atoms: _479  and  _481
REMARK  199  A    between atoms: _481  and  _482
REMARK  200  A    between atoms: _481  and  _484
REMARK  201  A    between atoms: _487  and  _489
REMARK  202  A    between atoms: _489  and  _490
REMARK  203  A    between atoms: _489  and  _492
REMARK  204  A    between atoms: _492  and  _493
REMARK  205  A    between atoms: _498  and  _500
REMARK  206  A    between atoms: _500  and  _501
REMARK  207  A    between atoms: _500  and  _503
REMARK  208  A    between atoms: _503  and  _504
REMARK  209  A    between atoms: _507  and  _509
REMARK  210  A    between atoms: _509  and  _510
REMARK  211  A    between atoms: _509  and  _512
REMARK  212  A    between atoms: _512  and  _513
REMARK  213  A    between atoms: _516  and  _518
REMARK  214  A    between atoms: _518  and  _519
REMARK  215  A    between atoms: _521  and  _523
REMARK  216  A    between atoms: _523  and  _524
REMARK  217  A    between atoms: _523  and  _526
REMARK  218  A    between atoms: _526  and  _527
REMARK  219  A    between atoms: _527  and  _528
REMARK  220  A    between atoms: _528  and  _529
REMARK  221  A    between atoms: _538  and  _540
REMARK  222  A    between atoms: _540  and  _541
REMARK  223  A    between atoms: _540  and  _543
REMARK  224  A    between atoms: _543  and  _544
REMARK                            x       y       z     vdW  Elec       q    Type
REMARK                         _______ _______ _______ _____ _____    ______ ____
ROOT
ATOM      1  O   HOH     1      10.853  15.146  16.489  0.00  0.00    +0.000 OA
ENDROOT
TORSDOF 0
REMARK  Name = ../refined-set-2016/2qd6/2qd6_pocket.pdb
REMARK  224 active torsions:
REMARK  status: ('A' for Active; 'I' for Inactive)
REMARK    1  A    between atoms: _1  and  _3
REMARK    2  A    between atoms: _3  and  _4
REMARK    3  A    between atoms: _3  and  _6
REMARK    4  A    between atoms: _6  and  _7
REMARK    5  A    between atoms: _7  and  _8
REMARK    6  A    between atoms: _8  and  _9
REMARK    7  A    between atoms: _18  and  _20
REMARK    8  A    between atoms: _20  and  _21
REMARK    9  A    between atoms: _20  and  _23
REMARK   10  A    between atoms: _23  and  _24
REMARK   11  A    between atoms: _27  and  _29
REMARK   12  A    between atoms: _29  and  _30
REMARK   13  A    between atoms: _29  and  _32
REMARK   14  A    between atoms: _32  and  _33
REMARK   15  A    between atoms: _36  and  _38
REMARK   16  A    between atoms: _38  and  _39
REMARK   17  A    between atoms: _38  and  _41
REMARK   18  A    between atoms: _41  and  _42
REMARK   19  A    between atoms: _45  and  _47
REMARK   20  A    between atoms: _47  and  _48
REMARK   21  A    between atoms: _47  and  _50
REMARK   22  A    between atoms: _50  and  _51
REMARK   23  A    between atoms: _54  and  _56
REMARK   24  A    between atoms: _56  and  _57
REMARK   25  A    between atoms: _59  and  _61
REMARK   26  A    between atoms: _61  and  _62
REMARK   27  A    between atoms: _65  and  _67
REMARK   28  A    between atoms: _67  and  _68
REMARK   29  A    between atoms: _67  and  _70
REMARK   30  A    between atoms: _70  and  _71
REMARK   31  A    between atoms: _74  and  _76
REMARK   32  A    between atoms: _76  and  _77
REMARK   33  A    between atoms: _76  and  _79
REMARK   34  A    between atoms: _79  and  _80
REMARK   35  A    between atoms: _83  and  _85
REMARK   36  A    between atoms: _85  and  _86
REMARK   37  A    between atoms: _85  and  _88
REMARK   38  A    between atoms: _88  and  _89
REMARK   39  A    between atoms: _92  and  _94
REMARK   40  A    between atoms: _94  and  _95
REMARK   41  A    between atoms: _94  and  _97
REMARK   42  A    between atoms: _100  and  _102
REMARK   43  A    between atoms: _102  and  _103
REMARK   44  A    between atoms: _102  and  _105
REMARK   45  A    between atoms: _105  and  _106
REMARK   46  A    between atoms: _106  and  _107
REMARK   47  A    between atoms: _107  and  _108
REMARK   48  A    between atoms: _108  and  _109
REMARK   49  A    between atoms: _113  and  _115
REMARK   50  A    between atoms: _115  and  _116
REMARK   51  A    between atoms: _115  and  _118
REMARK   52  A    between atoms: _118  and  _119
REMARK   53  A    between atoms: _119  and  _120
REMARK   54  A    between atoms: _122  and  _124
REMARK   55  A    between atoms: _124  and  _125
REMARK   56  A    between atoms: _124  and  _127
REMARK   57  A    between atoms: _127  and  _128
REMARK   58  A    between atoms: _131  and  _133
REMARK   59  A    between atoms: _133  and  _134
REMARK   60  A    between atoms: _136  and  _138
REMARK   61  A    between atoms: _138  and  _139
REMARK   62  A    between atoms: _141  and  _143
REMARK   63  A    between atoms: _143  and  _144
REMARK   64  A    between atoms: _143  and  _146
REMARK   65  A    between atoms: _149  and  _151
REMARK   66  A    between atoms: _151  and  _152
REMARK   67  A    between atoms: _154  and  _156
REMARK   68  A    between atoms: _156  and  _157
REMARK   69  A    between atoms: _159  and  _161
REMARK   70  A    between atoms: _161  and  _162
REMARK   71  A    between atoms: _161  and  _164
REMARK   72  A    between atoms: _164  and  _165
REMARK   73  A    between atoms: _171  and  _173
REMARK   74  A    between atoms: _173  and  _174
REMARK   75  A    between atoms: _173  and  _176
REMARK   76  A    between atoms: _176  and  _177
REMARK   77  A    between atoms: _180  and  _182
REMARK   78  A    between atoms: _182  and  _183
REMARK   79  A    between atoms: _182  and  _185
REMARK   80  A    between atoms: _185  and  _186
REMARK   81  A    between atoms: _189  and  _191
REMARK   82  A    between atoms: _191  and  _192
REMARK   83  A    between atoms: _191  and  _194
REMARK   84  A    between atoms: _194  and  _195
REMARK   85  A    between atoms: _199  and  _200
REMARK   86  A    between atoms: _205  and  _207
REMARK   87  A    between atoms: _207  and  _208
REMARK   88  A    between atoms: _207  and  _210
REMARK   89  A    between atoms: _213  and  _215
REMARK   90  A    between atoms: _215  and  _216
REMARK   91  A    between atoms: _215  and  _218
REMARK   92  A    between atoms: _218  and  _219
REMARK   93  A    between atoms: _224  and  _226
REMARK   94  A    between atoms: _226  and  _227
REMARK   95  A    between atoms: _226  and  _229
REMARK   96  A    between atoms: _229  and  _230
REMARK   97  A    between atoms: _233  and  _235
REMARK   98  A    between atoms: _235  and  _236
REMARK   99  A    between atoms: _235  and  _238
REMARK  100  A    between atoms: _238  and  _239
REMARK  101  A    between atoms: _242  and  _244
REMARK  102  A    between atoms: _244  and  _245
REMARK  103  A    between atoms: _247  and  _249
REMARK  104  A    between atoms: _249  and  _250
REMARK  105  A    between atoms: _249  and  _252
REMARK  106  A    between atoms: _252  and  _253
REMARK  107  A    between atoms: _253  and  _254
REMARK  108  A    between atoms: _254  and  _255
REMARK  109  A    between atoms: _264  and  _266
REMARK  110  A    between atoms: _266  and  _267
REMARK  111  A    between atoms: _266  and  _269
REMARK  112  A    between atoms: _269  and  _270
REMARK  113  A    between atoms: _275  and  _277
REMARK  114  A    between atoms: _277  and  _278
REMARK  115  A    between atoms: _277  and  _280
REMARK  116  A    between atoms: _280  and  _281
REMARK  117  A    between atoms: _281  and  _282
REMARK  118  A    between atoms: _282  and  _283
REMARK  119  A    between atoms: _292  and  _294
REMARK  120  A    between atoms: _294  and  _295
REMARK  121  A    between atoms: _294  and  _297
REMARK  122  A    between atoms: _297  and  _298
REMARK  123  A    between atoms: _301  and  _303
REMARK  124  A    between atoms: _303  and  _304
REMARK  125  A    between atoms: _303  and  _306
REMARK  126  A    between atoms: _306  and  _307
REMARK  127  A    between atoms: _310  and  _312
REMARK  128  A    between atoms: _312  and  _313
REMARK  129  A    between atoms: _312  and  _315
REMARK  130  A    between atoms: _315  and  _316
REMARK  131  A    between atoms: _319  and  _321
REMARK  132  A    between atoms: _321  and  _322
REMARK  133  A    between atoms: _321  and  _324
REMARK  134  A    between atoms: _324  and  _325
REMARK  135  A    between atoms: _328  and  _330
REMARK  136  A    between atoms: _330  and  _331
REMARK  137  A    between atoms: _333  and  _335
REMARK  138  A    between atoms: _335  and  _336
REMARK  139  A    between atoms: _339  and  _341
REMARK  140  A    between atoms: _341  and  _342
REMARK  141  A    between atoms: _341  and  _344
REMARK  142  A    between atoms: _344  and  _345
REMARK  143  A    between atoms: _348  and  _350
REMARK  144  A    between atoms: _350  and  _351
REMARK  145  A    between atoms: _350  and  _353
REMARK  146  A    between atoms: _353  and  _354
REMARK  147  A    between atoms: _357  and  _359
REMARK  148  A    between atoms: _359  and  _360
REMARK  149  A    between atoms: _359  and  _362
REMARK  150  A    between atoms: _362  and  _363
REMARK  151  A    between atoms: _366  and  _368
REMARK  152  A    between atoms: _368  and  _369
REMARK  153  A    between atoms: _368  and  _371
REMARK  154  A    between atoms: _374  and  _376
REMARK  155  A    between atoms: _376  and  _377
REMARK  156  A    between atoms: _376  and  _379
REMARK  157  A    between atoms: _379  and  _380
REMARK  158  A    between atoms: _380  and  _381
REMARK  159  A    between atoms: _381  and  _382
REMARK  160  A    between atoms: _382  and  _383
REMARK  161  A    between atoms: _387  and  _389
REMARK  162  A    between atoms: _389  and  _390
REMARK  163  A    between atoms: _389  and  _392
REMARK  164  A    between atoms: _392  and  _393
REMARK  165  A    between atoms: _393  and  _394
REMARK  166  A    between atoms: _396  and  _398
REMARK  167  A    between atoms: _398  and  _399
REMARK  168  A    between atoms: _398  and  _401
REMARK  169  A    between atoms: _401  and  _402
REMARK  170  A    between atoms: _405  and  _407
REMARK  171  A    between atoms: _407  and  _408
REMARK  172  A    between atoms: _410  and  _412
REMARK  173  A    between atoms: _412  and  _413
REMARK  174  A    between atoms: _415  and  _417
REMARK  175  A    between atoms: _417  and  _418
REMARK  176  A    between atoms: _417  and  _420
REMARK  177  A    between atoms: _423  and  _425
REMARK  178  A    between atoms: _425  and  _426
REMARK  179  A    between atoms: _428  and  _430
REMARK  180  A    between atoms: _430  and  _431
REMARK  181  A    between atoms: _433  and  _435
REMARK  182  A    between atoms: _435  and  _436
REMARK  183  A    between atoms: _435  and  _438
REMARK  184  A    between atoms: _438  and  _439
REMARK  185  A    between atoms: _445  and  _447
REMARK  186  A    between atoms: _447  and  _448
REMARK  187  A    between atoms: _447  and  _450
REMARK  188  A    between atoms: _450  and  _451
REMARK  189  A    between atoms: _454  and  _456
REMARK  190  A    between atoms: _456  and  _457
REMARK  191  A    between atoms: _456  and  _459
REMARK  192  A    between atoms: _459  and  _460
REMARK  193  A    between atoms: _463  and  _465
REMARK  194  A    between atoms: _465  and  _466
REMARK  195  A    between atoms: _465  and  _468
REMARK  196  A    between atoms: _468  and  _469
REMARK  197  A    between atoms: _473  and  _474
REMARK  198  A    between atoms: _479  and  _481
REMARK  199  A    between atoms: _481  and  _482
REMARK  200  A    between atoms: _481  and  _484
REMARK  201  A    between atoms: _487  and  _489
REMARK  202  A    between atoms: _489  and  _490
REMARK  203  A    between atoms: _489  and  _492
REMARK  204  A    between atoms: _492  and  _493
REMARK  205  A    between atoms: _498  and  _500
REMARK  206  A    between atoms: _500  and  _501
REMARK  207  A    between atoms: _500  and  _503
REMARK  208  A    between atoms: _503  and  _504
REMARK  209  A    between atoms: _507  and  _509
REMARK  210  A    between atoms: _509  and  _510
REMARK  211  A    between atoms: _509  and  _512
REMARK  212  A    between atoms: _512  and  _513
REMARK  213  A    between atoms: _516  and  _518
REMARK  214  A    between atoms: _518  and  _519
REMARK  215  A    between atoms: _521  and  _523
REMARK  216  A    between atoms: _523  and  _524
REMARK  217  A    between atoms: _523  and  _526
REMARK  218  A    between atoms: _526  and  _527
REMARK  219  A    between atoms: _527  and  _528
REMARK  220  A    between atoms: _528  and  _529
REMARK  221  A    between atoms: _538  and  _540
REMARK  222  A    between atoms: _540  and  _541
REMARK  223  A    between atoms: _540  and  _543
REMARK  224  A    between atoms: _543  and  _544
REMARK                            x       y       z     vdW  Elec       q    Type
REMARK                         _______ _______ _______ _____ _____    ______ ____
ROOT
ATOM      1  O   HOH     1      18.007  20.833  16.436  0.00  0.00    +0.000 OA
ENDROOT
TORSDOF 0
REMARK  Name = ../refined-set-2016/2qd6/2qd6_pocket.pdb
REMARK  224 active torsions:
REMARK  status: ('A' for Active; 'I' for Inactive)
REMARK    1  A    between atoms: _1  and  _3
REMARK    2  A    between atoms: _3  and  _4
REMARK    3  A    between atoms: _3  and  _6
REMARK    4  A    between atoms: _6  and  _7
REMARK    5  A    between atoms: _7  and  _8
REMARK    6  A    between atoms: _8  and  _9
REMARK    7  A    between atoms: _18  and  _20
REMARK    8  A    between atoms: _20  and  _21
REMARK    9  A    between atoms: _20  and  _23
REMARK   10  A    between atoms: _23  and  _24
REMARK   11  A    between atoms: _27  and  _29
REMARK   12  A    between atoms: _29  and  _30
REMARK   13  A    between atoms: _29  and  _32
REMARK   14  A    between atoms: _32  and  _33
REMARK   15  A    between atoms: _36  and  _38
REMARK   16  A    between atoms: _38  and  _39
REMARK   17  A    between atoms: _38  and  _41
REMARK   18  A    between atoms: _41  and  _42
REMARK   19  A    between atoms: _45  and  _47
REMARK   20  A    between atoms: _47  and  _48
REMARK   21  A    between atoms: _47  and  _50
REMARK   22  A    between atoms: _50  and  _51
REMARK   23  A    between atoms: _54  and  _56
REMARK   24  A    between atoms: _56  and  _57
REMARK   25  A    between atoms: _59  and  _61
REMARK   26  A    between atoms: _61  and  _62
REMARK   27  A    between atoms: _65  and  _67
REMARK   28  A    between atoms: _67  and  _68
REMARK   29  A    between atoms: _67  and  _70
REMARK   30  A    between atoms: _70  and  _71
REMARK   31  A    between atoms: _74  and  _76
REMARK   32  A    between atoms: _76  and  _77
REMARK   33  A    between atoms: _76  and  _79
REMARK   34  A    between atoms: _79  and  _80
REMARK   35  A    between atoms: _83  and  _85
REMARK   36  A    between atoms: _85  and  _86
REMARK   37  A    between atoms: _85  and  _88
REMARK   38  A    between atoms: _88  and  _89
REMARK   39  A    between atoms: _92  and  _94
REMARK   40  A    between atoms: _94  and  _95
REMARK   41  A    between atoms: _94  and  _97
REMARK   42  A    between atoms: _100  and  _102
REMARK   43  A    between atoms: _102  and  _103
REMARK   44  A    between atoms: _102  and  _105
REMARK   45  A    between atoms: _105  and  _106
REMARK   46  A    between atoms: _106  and  _107
REMARK   47  A    between atoms: _107  and  _108
REMARK   48  A    between atoms: _108  and  _109
REMARK   49  A    between atoms: _113  and  _115
REMARK   50  A    between atoms: _115  and  _116
REMARK   51  A    between atoms: _115  and  _118
REMARK   52  A    between atoms: _118  and  _119
REMARK   53  A    between atoms: _119  and  _120
REMARK   54  A    between atoms: _122  and  _124
REMARK   55  A    between atoms: _124  and  _125
REMARK   56  A    between atoms: _124  and  _127
REMARK   57  A    between atoms: _127  and  _128
REMARK   58  A    between atoms: _131  and  _133
REMARK   59  A    between atoms: _133  and  _134
REMARK   60  A    between atoms: _136  and  _138
REMARK   61  A    between atoms: _138  and  _139
REMARK   62  A    between atoms: _141  and  _143
REMARK   63  A    between atoms: _143  and  _144
REMARK   64  A    between atoms: _143  and  _146
REMARK   65  A    between atoms: _149  and  _151
REMARK   66  A    between atoms: _151  and  _152
REMARK   67  A    between atoms: _154  and  _156
REMARK   68  A    between atoms: _156  and  _157
REMARK   69  A    between atoms: _159  and  _161
REMARK   70  A    between atoms: _161  and  _162
REMARK   71  A    between atoms: _161  and  _164
REMARK   72  A    between atoms: _164  and  _165
REMARK   73  A    between atoms: _171  and  _173
REMARK   74  A    between atoms: _173  and  _174
REMARK   75  A    between atoms: _173  and  _176
REMARK   76  A    between atoms: _176  and  _177
REMARK   77  A    between atoms: _180  and  _182
REMARK   78  A    between atoms: _182  and  _183
REMARK   79  A    between atoms: _182  and  _185
REMARK   80  A    between atoms: _185  and  _186
REMARK   81  A    between atoms: _189  and  _191
REMARK   82  A    between atoms: _191  and  _192
REMARK   83  A    between atoms: _191  and  _194
REMARK   84  A    between atoms: _194  and  _195
REMARK   85  A    between atoms: _199  and  _200
REMARK   86  A    between atoms: _205  and  _207
REMARK   87  A    between atoms: _207  and  _208
REMARK   88  A    between atoms: _207  and  _210
REMARK   89  A    between atoms: _213  and  _215
REMARK   90  A    between atoms: _215  and  _216
REMARK   91  A    between atoms: _215  and  _218
REMARK   92  A    between atoms: _218  and  _219
REMARK   93  A    between atoms: _224  and  _226
REMARK   94  A    between atoms: _226  and  _227
REMARK   95  A    between atoms: _226  and  _229
REMARK   96  A    between atoms: _229  and  _230
REMARK   97  A    between atoms: _233  and  _235
REMARK   98  A    between atoms: _235  and  _236
REMARK   99  A    between atoms: _235  and  _238
REMARK  100  A    between atoms: _238  and  _239
REMARK  101  A    between atoms: _242  and  _244
REMARK  102  A    between atoms: _244  and  _245
REMARK  103  A    between atoms: _247  and  _249
REMARK  104  A    between atoms: _249  and  _250
REMARK  105  A    between atoms: _249  and  _252
REMARK  106  A    between atoms: _252  and  _253
REMARK  107  A    between atoms: _253  and  _254
REMARK  108  A    between atoms: _254  and  _255
REMARK  109  A    between atoms: _264  and  _266
REMARK  110  A    between atoms: _266  and  _267
REMARK  111  A    between atoms: _266  and  _269
REMARK  112  A    between atoms: _269  and  _270
REMARK  113  A    between atoms: _275  and  _277
REMARK  114  A    between atoms: _277  and  _278
REMARK  115  A    between atoms: _277  and  _280
REMARK  116  A    between atoms: _280  and  _281
REMARK  117  A    between atoms: _281  and  _282
REMARK  118  A    between atoms: _282  and  _283
REMARK  119  A    between atoms: _292  and  _294
REMARK  120  A    between atoms: _294  and  _295
REMARK  121  A    between atoms: _294  and  _297
REMARK  122  A    between atoms: _297  and  _298
REMARK  123  A    between atoms: _301  and  _303
REMARK  124  A    between atoms: _303  and  _304
REMARK  125  A    between atoms: _303  and  _306
REMARK  126  A    between atoms: _306  and  _307
REMARK  127  A    between atoms: _310  and  _312
REMARK  128  A    between atoms: _312  and  _313
REMARK  129  A    between atoms: _312  and  _315
REMARK  130  A    between atoms: _315  and  _316
REMARK  131  A    between atoms: _319  and  _321
REMARK  132  A    between atoms: _321  and  _322
REMARK  133  A    between atoms: _321  and  _324
REMARK  134  A    between atoms: _324  and  _325
REMARK  135  A    between atoms: _328  and  _330
REMARK  136  A    between atoms: _330  and  _331
REMARK  137  A    between atoms: _333  and  _335
REMARK  138  A    between atoms: _335  and  _336
REMARK  139  A    between atoms: _339  and  _341
REMARK  140  A    between atoms: _341  and  _342
REMARK  141  A    between atoms: _341  and  _344
REMARK  142  A    between atoms: _344  and  _345
REMARK  143  A    between atoms: _348  and  _350
REMARK  144  A    between atoms: _350  and  _351
REMARK  145  A    between atoms: _350  and  _353
REMARK  146  A    between atoms: _353  and  _354
REMARK  147  A    between atoms: _357  and  _359
REMARK  148  A    between atoms: _359  and  _360
REMARK  149  A    between atoms: _359  and  _362
REMARK  150  A    between atoms: _362  and  _363
REMARK  151  A    between atoms: _366  and  _368
REMARK  152  A    between atoms: _368  and  _369
REMARK  153  A    between atoms: _368  and  _371
REMARK  154  A    between atoms: _374  and  _376
REMARK  155  A    between atoms: _376  and  _377
REMARK  156  A    between atoms: _376  and  _379
REMARK  157  A    between atoms: _379  and  _380
REMARK  158  A    between atoms: _380  and  _381
REMARK  159  A    between atoms: _381  and  _382
REMARK  160  A    between atoms: _382  and  _383
REMARK  161  A    between atoms: _387  and  _389
REMARK  162  A    between atoms: _389  and  _390
REMARK  163  A    between atoms: _389  and  _392
REMARK  164  A    between atoms: _392  and  _393
REMARK  165  A    between atoms: _393  and  _394
REMARK  166  A    between atoms: _396  and  _398
REMARK  167  A    between atoms: _398  and  _399
REMARK  168  A    between atoms: _398  and  _401
REMARK  169  A    between atoms: _401  and  _402
REMARK  170  A    between atoms: _405  and  _407
REMARK  171  A    between atoms: _407  and  _408
REMARK  172  A    between atoms: _410  and  _412
REMARK  173  A    between atoms: _412  and  _413
REMARK  174  A    between atoms: _415  and  _417
REMARK  175  A    between atoms: _417  and  _418
REMARK  176  A    between atoms: _417  and  _420
REMARK  177  A    between atoms: _423  and  _425
REMARK  178  A    between atoms: _425  and  _426
REMARK  179  A    between atoms: _428  and  _430
REMARK  180  A    between atoms: _430  and  _431
REMARK  181  A    between atoms: _433  and  _435
REMARK  182  A    between atoms: _435  and  _436
REMARK  183  A    between atoms: _435  and  _438
REMARK  184  A    between atoms: _438  and  _439
REMARK  185  A    between atoms: _445  and  _447
REMARK  186  A    between atoms: _447  and  _448
REMARK  187  A    between atoms: _447  and  _450
REMARK  188  A    between atoms: _450  and  _451
REMARK  189  A    between atoms: _454  and  _456
REMARK  190  A    between atoms: _456  and  _457
REMARK  191  A    between atoms: _456  and  _459
REMARK  192  A    between atoms: _459  and  _460
REMARK  193  A    between atoms: _463  and  _465
REMARK  194  A    between atoms: _465  and  _466
REMARK  195  A    between atoms: _465  and  _468
REMARK  196  A    between atoms: _468  and  _469
REMARK  197  A    between atoms: _473  and  _474
REMARK  198  A    between atoms: _479  and  _481
REMARK  199  A    between atoms: _481  and  _482
REMARK  200  A    between atoms: _481  and  _484
REMARK  201  A    between atoms: _487  and  _489
REMARK  202  A    between atoms: _489  and  _490
REMARK  203  A    between atoms: _489  and  _492
REMARK  204  A    between atoms: _492  and  _493
REMARK  205  A    between atoms: _498  and  _500
REMARK  206  A    between atoms: _500  and  _501
REMARK  207  A    between atoms: _500  and  _503
REMARK  208  A    between atoms: _503  and  _504
REMARK  209  A    between atoms: _507  and  _509
REMARK  210  A    between atoms: _509  and  _510
REMARK  211  A    between atoms: _509  and  _512
REMARK  212  A    between atoms: _512  and  _513
REMARK  213  A    between atoms: _516  and  _518
REMARK  214  A    between atoms: _518  and  _519
REMARK  215  A    between atoms: _521  and  _523
REMARK  216  A    between atoms: _523  and  _524
REMARK  217  A    between atoms: _523  and  _526
REMARK  218  A    between atoms: _526  and  _527
REMARK  219  A    between atoms: _527  and  _528
REMARK  220  A    between atoms: _528  and  _529
REMARK  221  A    between atoms: _538  and  _540
REMARK  222  A    between atoms: _540  and  _541
REMARK  223  A    between atoms: _540  and  _543
REMARK  224  A    between atoms: _543  and  _544
REMARK                            x       y       z     vdW  Elec       q    Type
REMARK                         _______ _______ _______ _____ _____    ______ ____
ROOT
ATOM      1  O   HOH     1      15.622  15.794  11.680  0.00  0.00    +0.000 OA
ENDROOT
TORSDOF 0
REMARK  Name = ../refined-set-2016/2qd6/2qd6_pocket.pdb
REMARK  224 active torsions:
REMARK  status: ('A' for Active; 'I' for Inactive)
REMARK    1  A    between atoms: _1  and  _3
REMARK    2  A    between atoms: _3  and  _4
REMARK    3  A    between atoms: _3  and  _6
REMARK    4  A    between atoms: _6  and  _7
REMARK    5  A    between atoms: _7  and  _8
REMARK    6  A    between atoms: _8  and  _9
REMARK    7  A    between atoms: _18  and  _20
REMARK    8  A    between atoms: _20  and  _21
REMARK    9  A    between atoms: _20  and  _23
REMARK   10  A    between atoms: _23  and  _24
REMARK   11  A    between atoms: _27  and  _29
REMARK   12  A    between atoms: _29  and  _30
REMARK   13  A    between atoms: _29  and  _32
REMARK   14  A    between atoms: _32  and  _33
REMARK   15  A    between atoms: _36  and  _38
REMARK   16  A    between atoms: _38  and  _39
REMARK   17  A    between atoms: _38  and  _41
REMARK   18  A    between atoms: _41  and  _42
REMARK   19  A    between atoms: _45  and  _47
REMARK   20  A    between atoms: _47  and  _48
REMARK   21  A    between atoms: _47  and  _50
REMARK   22  A    between atoms: _50  and  _51
REMARK   23  A    between atoms: _54  and  _56
REMARK   24  A    between atoms: _56  and  _57
REMARK   25  A    between atoms: _59  and  _61
REMARK   26  A    between atoms: _61  and  _62
REMARK   27  A    between atoms: _65  and  _67
REMARK   28  A    between atoms: _67  and  _68
REMARK   29  A    between atoms: _67  and  _70
REMARK   30  A    between atoms: _70  and  _71
REMARK   31  A    between atoms: _74  and  _76
REMARK   32  A    between atoms: _76  and  _77
REMARK   33  A    between atoms: _76  and  _79
REMARK   34  A    between atoms: _79  and  _80
REMARK   35  A    between atoms: _83  and  _85
REMARK   36  A    between atoms: _85  and  _86
REMARK   37  A    between atoms: _85  and  _88
REMARK   38  A    between atoms: _88  and  _89
REMARK   39  A    between atoms: _92  and  _94
REMARK   40  A    between atoms: _94  and  _95
REMARK   41  A    between atoms: _94  and  _97
REMARK   42  A    between atoms: _100  and  _102
REMARK   43  A    between atoms: _102  and  _103
REMARK   44  A    between atoms: _102  and  _105
REMARK   45  A    between atoms: _105  and  _106
REMARK   46  A    between atoms: _106  and  _107
REMARK   47  A    between atoms: _107  and  _108
REMARK   48  A    between atoms: _108  and  _109
REMARK   49  A    between atoms: _113  and  _115
REMARK   50  A    between atoms: _115  and  _116
REMARK   51  A    between atoms: _115  and  _118
REMARK   52  A    between atoms: _118  and  _119
REMARK   53  A    between atoms: _119  and  _120
REMARK   54  A    between atoms: _122  and  _124
REMARK   55  A    between atoms: _124  and  _125
REMARK   56  A    between atoms: _124  and  _127
REMARK   57  A    between atoms: _127  and  _128
REMARK   58  A    between atoms: _131  and  _133
REMARK   59  A    between atoms: _133  and  _134
REMARK   60  A    between atoms: _136  and  _138
REMARK   61  A    between atoms: _138  and  _139
REMARK   62  A    between atoms: _141  and  _143
REMARK   63  A    between atoms: _143  and  _144
REMARK   64  A    between atoms: _143  and  _146
REMARK   65  A    between atoms: _149  and  _151
REMARK   66  A    between atoms: _151  and  _152
REMARK   67  A    between atoms: _154  and  _156
REMARK   68  A    between atoms: _156  and  _157
REMARK   69  A    between atoms: _159  and  _161
REMARK   70  A    between atoms: _161  and  _162
REMARK   71  A    between atoms: _161  and  _164
REMARK   72  A    between atoms: _164  and  _165
REMARK   73  A    between atoms: _171  and  _173
REMARK   74  A    between atoms: _173  and  _174
REMARK   75  A    between atoms: _173  and  _176
REMARK   76  A    between atoms: _176  and  _177
REMARK   77  A    between atoms: _180  and  _182
REMARK   78  A    between atoms: _182  and  _183
REMARK   79  A    between atoms: _182  and  _185
REMARK   80  A    between atoms: _185  and  _186
REMARK   81  A    between atoms: _189  and  _191
REMARK   82  A    between atoms: _191  and  _192
REMARK   83  A    between atoms: _191  and  _194
REMARK   84  A    between atoms: _194  and  _195
REMARK   85  A    between atoms: _199  and  _200
REMARK   86  A    between atoms: _205  and  _207
REMARK   87  A    between atoms: _207  and  _208
REMARK   88  A    between atoms: _207  and  _210
REMARK   89  A    between atoms: _213  and  _215
REMARK   90  A    between atoms: _215  and  _216
REMARK   91  A    between atoms: _215  and  _218
REMARK   92  A    between atoms: _218  and  _219
REMARK   93  A    between atoms: _224  and  _226
REMARK   94  A    between atoms: _226  and  _227
REMARK   95  A    between atoms: _226  and  _229
REMARK   96  A    between atoms: _229  and  _230
REMARK   97  A    between atoms: _233  and  _235
REMARK   98  A    between atoms: _235  and  _236
REMARK   99  A    between atoms: _235  and  _238
REMARK  100  A    between atoms: _238  and  _239
REMARK  101  A    between atoms: _242  and  _244
REMARK  102  A    between atoms: _244  and  _245
REMARK  103  A    between atoms: _247  and  _249
REMARK  104  A    between atoms: _249  and  _250
REMARK  105  A    between atoms: _249  and  _252
REMARK  106  A    between atoms: _252  and  _253
REMARK  107  A    between atoms: _253  and  _254
REMARK  108  A    between atoms: _254  and  _255
REMARK  109  A    between atoms: _264  and  _266
REMARK  110  A    between atoms: _266  and  _267
REMARK  111  A    between atoms: _266  and  _269
REMARK  112  A    between atoms: _269  and  _270
REMARK  113  A    between atoms: _275  and  _277
REMARK  114  A    between atoms: _277  and  _278
REMARK  115  A    between atoms: _277  and  _280
REMARK  116  A    between atoms: _280  and  _281
REMARK  117  A    between atoms: _281  and  _282
REMARK  118  A    between atoms: _282  and  _283
REMARK  119  A    between atoms: _292  and  _294
REMARK  120  A    between atoms: _294  and  _295
REMARK  121  A    between atoms: _294  and  _297
REMARK  122  A    between atoms: _297  and  _298
REMARK  123  A    between atoms: _301  and  _303
REMARK  124  A    between atoms: _303  and  _304
REMARK  125  A    between atoms: _303  and  _306
REMARK  126  A    between atoms: _306  and  _307
REMARK  127  A    between atoms: _310  and  _312
REMARK  128  A    between atoms: _312  and  _313
REMARK  129  A    between atoms: _312  and  _315
REMARK  130  A    between atoms: _315  and  _316
REMARK  131  A    between atoms: _319  and  _321
REMARK  132  A    between atoms: _321  and  _322
REMARK  133  A    between atoms: _321  and  _324
REMARK  134  A    between atoms: _324  and  _325
REMARK  135  A    between atoms: _328  and  _330
REMARK  136  A    between atoms: _330  and  _331
REMARK  137  A    between atoms: _333  and  _335
REMARK  138  A    between atoms: _335  and  _336
REMARK  139  A    between atoms: _339  and  _341
REMARK  140  A    between atoms: _341  and  _342
REMARK  141  A    between atoms: _341  and  _344
REMARK  142  A    between atoms: _344  and  _345
REMARK  143  A    between atoms: _348  and  _350
REMARK  144  A    between atoms: _350  and  _351
REMARK  145  A    between atoms: _350  and  _353
REMARK  146  A    between atoms: _353  and  _354
REMARK  147  A    between atoms: _357  and  _359
REMARK  148  A    between atoms: _359  and  _360
REMARK  149  A    between atoms: _359  and  _362
REMARK  150  A    between atoms: _362  and  _363
REMARK  151  A    between atoms: _366  and  _368
REMARK  152  A    between atoms: _368  and  _369
REMARK  153  A    between atoms: _368  and  _371
REMARK  154  A    between atoms: _374  and  _376
REMARK  155  A    between atoms: _376  and  _377
REMARK  156  A    between atoms: _376  and  _379
REMARK  157  A    between atoms: _379  and  _380
REMARK  158  A    between atoms: _380  and  _381
REMARK  159  A    between atoms: _381  and  _382
REMARK  160  A    between atoms: _382  and  _383
REMARK  161  A    between atoms: _387  and  _389
REMARK  162  A    between atoms: _389  and  _390
REMARK  163  A    between atoms: _389  and  _392
REMARK  164  A    between atoms: _392  and  _393
REMARK  165  A    between atoms: _393  and  _394
REMARK  166  A    between atoms: _396  and  _398
REMARK  167  A    between atoms: _398  and  _399
REMARK  168  A    between atoms: _398  and  _401
REMARK  169  A    between atoms: _401  and  _402
REMARK  170  A    between atoms: _405  and  _407
REMARK  171  A    between atoms: _407  and  _408
REMARK  172  A    between atoms: _410  and  _412
REMARK  173  A    between atoms: _412  and  _413
REMARK  174  A    between atoms: _415  and  _417
REMARK  175  A    between atoms: _417  and  _418
REMARK  176  A    between atoms: _417  and  _420
REMARK  177  A    between atoms: _423  and  _425
REMARK  178  A    between atoms: _425  and  _426
REMARK  179  A    between atoms: _428  and  _430
REMARK  180  A    between atoms: _430  and  _431
REMARK  181  A    between atoms: _433  and  _435
REMARK  182  A    between atoms: _435  and  _436
REMARK  183  A    between atoms: _435  and  _438
REMARK  184  A    between atoms: _438  and  _439
REMARK  185  A    between atoms: _445  and  _447
REMARK  186  A    between atoms: _447  and  _448
REMARK  187  A    between atoms: _447  and  _450
REMARK  188  A    between atoms: _450  and  _451
REMARK  189  A    between atoms: _454  and  _456
REMARK  190  A    between atoms: _456  and  _457
REMARK  191  A    between atoms: _456  and  _459
REMARK  192  A    between atoms: _459  and  _460
REMARK  193  A    between atoms: _463  and  _465
REMARK  194  A    between atoms: _465  and  _466
REMARK  195  A    between atoms: _465  and  _468
REMARK  196  A    between atoms: _468  and  _469
REMARK  197  A    between atoms: _473  and  _474
REMARK  198  A    between atoms: _479  and  _481
REMARK  199  A    between atoms: _481  and  _482
REMARK  200  A    between atoms: _481  and  _484
REMARK  201  A    between atoms: _487  and  _489
REMARK  202  A    between atoms: _489  and  _490
REMARK  203  A    between atoms: _489  and  _492
REMARK  204  A    between atoms: _492  and  _493
REMARK  205  A    between atoms: _498  and  _500
REMARK  206  A    between atoms: _500  and  _501
REMARK  207  A    between atoms: _500  and  _503
REMARK  208  A    between atoms: _503  and  _504
REMARK  209  A    between atoms: _507  and  _509
REMARK  210  A    between atoms: _509  and  _510
REMARK  211  A    between atoms: _509  and  _512
REMARK  212  A    between atoms: _512  and  _513
REMARK  213  A    between atoms: _516  and  _518
REMARK  214  A    between atoms: _518  and  _519
REMARK  215  A    between atoms: _521  and  _523
REMARK  216  A    between atoms: _523  and  _524
REMARK  217  A    between atoms: _523  and  _526
REMARK  218  A    between atoms: _526  and  _527
REMARK  219  A    between atoms: _527  and  _528
REMARK  220  A    between atoms: _528  and  _529
REMARK  221  A    between atoms: _538  and  _540
REMARK  222  A    between atoms: _540  and  _541
REMARK  223  A    between atoms: _540  and  _543
REMARK  224  A    between atoms: _543  and  _544
REMARK                            x       y       z     vdW  Elec       q    Type
REMARK                         _______ _______ _______ _____ _____    ______ ____
ROOT
ATOM      1  O   HOH     1       4.224  18.873  22.592  0.00  0.00    +0.000 OA
ENDROOT
TORSDOF 0
REMARK  Name = ../refined-set-2016/2qd6/2qd6_pocket.pdb
REMARK  224 active torsions:
REMARK  status: ('A' for Active; 'I' for Inactive)
REMARK    1  A    between atoms: _1  and  _3
REMARK    2  A    between atoms: _3  and  _4
REMARK    3  A    between atoms: _3  and  _6
REMARK    4  A    between atoms: _6  and  _7
REMARK    5  A    between atoms: _7  and  _8
REMARK    6  A    between atoms: _8  and  _9
REMARK    7  A    between atoms: _18  and  _20
REMARK    8  A    between atoms: _20  and  _21
REMARK    9  A    between atoms: _20  and  _23
REMARK   10  A    between atoms: _23  and  _24
REMARK   11  A    between atoms: _27  and  _29
REMARK   12  A    between atoms: _29  and  _30
REMARK   13  A    between atoms: _29  and  _32
REMARK   14  A    between atoms: _32  and  _33
REMARK   15  A    between atoms: _36  and  _38
REMARK   16  A    between atoms: _38  and  _39
REMARK   17  A    between atoms: _38  and  _41
REMARK   18  A    between atoms: _41  and  _42
REMARK   19  A    between atoms: _45  and  _47
REMARK   20  A    between atoms: _47  and  _48
REMARK   21  A    between atoms: _47  and  _50
REMARK   22  A    between atoms: _50  and  _51
REMARK   23  A    between atoms: _54  and  _56
REMARK   24  A    between atoms: _56  and  _57
REMARK   25  A    between atoms: _59  and  _61
REMARK   26  A    between atoms: _61  and  _62
REMARK   27  A    between atoms: _65  and  _67
REMARK   28  A    between atoms: _67  and  _68
REMARK   29  A    between atoms: _67  and  _70
REMARK   30  A    between atoms: _70  and  _71
REMARK   31  A    between atoms: _74  and  _76
REMARK   32  A    between atoms: _76  and  _77
REMARK   33  A    between atoms: _76  and  _79
REMARK   34  A    between atoms: _79  and  _80
REMARK   35  A    between atoms: _83  and  _85
REMARK   36  A    between atoms: _85  and  _86
REMARK   37  A    between atoms: _85  and  _88
REMARK   38  A    between atoms: _88  and  _89
REMARK   39  A    between atoms: _92  and  _94
REMARK   40  A    between atoms: _94  and  _95
REMARK   41  A    between atoms: _94  and  _97
REMARK   42  A    between atoms: _100  and  _102
REMARK   43  A    between atoms: _102  and  _103
REMARK   44  A    between atoms: _102  and  _105
REMARK   45  A    between atoms: _105  and  _106
REMARK   46  A    between atoms: _106  and  _107
REMARK   47  A    between atoms: _107  and  _108
REMARK   48  A    between atoms: _108  and  _109
REMARK   49  A    between atoms: _113  and  _115
REMARK   50  A    between atoms: _115  and  _116
REMARK   51  A    between atoms: _115  and  _118
REMARK   52  A    between atoms: _118  and  _119
REMARK   53  A    between atoms: _119  and  _120
REMARK   54  A    between atoms: _122  and  _124
REMARK   55  A    between atoms: _124  and  _125
REMARK   56  A    between atoms: _124  and  _127
REMARK   57  A    between atoms: _127  and  _128
REMARK   58  A    between atoms: _131  and  _133
REMARK   59  A    between atoms: _133  and  _134
REMARK   60  A    between atoms: _136  and  _138
REMARK   61  A    between atoms: _138  and  _139
REMARK   62  A    between atoms: _141  and  _143
REMARK   63  A    between atoms: _143  and  _144
REMARK   64  A    between atoms: _143  and  _146
REMARK   65  A    between atoms: _149  and  _151
REMARK   66  A    between atoms: _151  and  _152
REMARK   67  A    between atoms: _154  and  _156
REMARK   68  A    between atoms: _156  and  _157
REMARK   69  A    between atoms: _159  and  _161
REMARK   70  A    between atoms: _161  and  _162
REMARK   71  A    between atoms: _161  and  _164
REMARK   72  A    between atoms: _164  and  _165
REMARK   73  A    between atoms: _171  and  _173
REMARK   74  A    between atoms: _173  and  _174
REMARK   75  A    between atoms: _173  and  _176
REMARK   76  A    between atoms: _176  and  _177
REMARK   77  A    between atoms: _180  and  _182
REMARK   78  A    between atoms: _182  and  _183
REMARK   79  A    between atoms: _182  and  _185
REMARK   80  A    between atoms: _185  and  _186
REMARK   81  A    between atoms: _189  and  _191
REMARK   82  A    between atoms: _191  and  _192
REMARK   83  A    between atoms: _191  and  _194
REMARK   84  A    between atoms: _194  and  _195
REMARK   85  A    between atoms: _199  and  _200
REMARK   86  A    between atoms: _205  and  _207
REMARK   87  A    between atoms: _207  and  _208
REMARK   88  A    between atoms: _207  and  _210
REMARK   89  A    between atoms: _213  and  _215
REMARK   90  A    between atoms: _215  and  _216
REMARK   91  A    between atoms: _215  and  _218
REMARK   92  A    between atoms: _218  and  _219
REMARK   93  A    between atoms: _224  and  _226
REMARK   94  A    between atoms: _226  and  _227
REMARK   95  A    between atoms: _226  and  _229
REMARK   96  A    between atoms: _229  and  _230
REMARK   97  A    between atoms: _233  and  _235
REMARK   98  A    between atoms: _235  and  _236
REMARK   99  A    between atoms: _235  and  _238
REMARK  100  A    between atoms: _238  and  _239
REMARK  101  A    between atoms: _242  and  _244
REMARK  102  A    between atoms: _244  and  _245
REMARK  103  A    between atoms: _247  and  _249
REMARK  104  A    between atoms: _249  and  _250
REMARK  105  A    between atoms: _249  and  _252
REMARK  106  A    between atoms: _252  and  _253
REMARK  107  A    between atoms: _253  and  _254
REMARK  108  A    between atoms: _254  and  _255
REMARK  109  A    between atoms: _264  and  _266
REMARK  110  A    between atoms: _266  and  _267
REMARK  111  A    between atoms: _266  and  _269
REMARK  112  A    between atoms: _269  and  _270
REMARK  113  A    between atoms: _275  and  _277
REMARK  114  A    between atoms: _277  and  _278
REMARK  115  A    between atoms: _277  and  _280
REMARK  116  A    between atoms: _280  and  _281
REMARK  117  A    between atoms: _281  and  _282
REMARK  118  A    between atoms: _282  and  _283
REMARK  119  A    between atoms: _292  and  _294
REMARK  120  A    between atoms: _294  and  _295
REMARK  121  A    between atoms: _294  and  _297
REMARK  122  A    between atoms: _297  and  _298
REMARK  123  A    between atoms: _301  and  _303
REMARK  124  A    between atoms: _303  and  _304
REMARK  125  A    between atoms: _303  and  _306
REMARK  126  A    between atoms: _306  and  _307
REMARK  127  A    between atoms: _310  and  _312
REMARK  128  A    between atoms: _312  and  _313
REMARK  129  A    between atoms: _312  and  _315
REMARK  130  A    between atoms: _315  and  _316
REMARK  131  A    between atoms: _319  and  _321
REMARK  132  A    between atoms: _321  and  _322
REMARK  133  A    between atoms: _321  and  _324
REMARK  134  A    between atoms: _324  and  _325
REMARK  135  A    between atoms: _328  and  _330
REMARK  136  A    between atoms: _330  and  _331
REMARK  137  A    between atoms: _333  and  _335
REMARK  138  A    between atoms: _335  and  _336
REMARK  139  A    between atoms: _339  and  _341
REMARK  140  A    between atoms: _341  and  _342
REMARK  141  A    between atoms: _341  and  _344
REMARK  142  A    between atoms: _344  and  _345
REMARK  143  A    between atoms: _348  and  _350
REMARK  144  A    between atoms: _350  and  _351
REMARK  145  A    between atoms: _350  and  _353
REMARK  146  A    between atoms: _353  and  _354
REMARK  147  A    between atoms: _357  and  _359
REMARK  148  A    between atoms: _359  and  _360
REMARK  149  A    between atoms: _359  and  _362
REMARK  150  A    between atoms: _362  and  _363
REMARK  151  A    between atoms: _366  and  _368
REMARK  152  A    between atoms: _368  and  _369
REMARK  153  A    between atoms: _368  and  _371
REMARK  154  A    between atoms: _374  and  _376
REMARK  155  A    between atoms: _376  and  _377
REMARK  156  A    between atoms: _376  and  _379
REMARK  157  A    between atoms: _379  and  _380
REMARK  158  A    between atoms: _380  and  _381
REMARK  159  A    between atoms: _381  and  _382
REMARK  160  A    between atoms: _382  and  _383
REMARK  161  A    between atoms: _387  and  _389
REMARK  162  A    between atoms: _389  and  _390
REMARK  163  A    between atoms: _389  and  _392
REMARK  164  A    between atoms: _392  and  _393
REMARK  165  A    between atoms: _393  and  _394
REMARK  166  A    between atoms: _396  and  _398
REMARK  167  A    between atoms: _398  and  _399
REMARK  168  A    between atoms: _398  and  _401
REMARK  169  A    between atoms: _401  and  _402
REMARK  170  A    between atoms: _405  and  _407
REMARK  171  A    between atoms: _407  and  _408
REMARK  172  A    between atoms: _410  and  _412
REMARK  173  A    between atoms: _412  and  _413
REMARK  174  A    between atoms: _415  and  _417
REMARK  175  A    between atoms: _417  and  _418
REMARK  176  A    between atoms: _417  and  _420
REMARK  177  A    between atoms: _423  and  _425
REMARK  178  A    between atoms: _425  and  _426
REMARK  179  A    between atoms: _428  and  _430
REMARK  180  A    between atoms: _430  and  _431
REMARK  181  A    between atoms: _433  and  _435
REMARK  182  A    between atoms: _435  and  _436
REMARK  183  A    between atoms: _435  and  _438
REMARK  184  A    between atoms: _438  and  _439
REMARK  185  A    between atoms: _445  and  _447
REMARK  186  A    between atoms: _447  and  _448
REMARK  187  A    between atoms: _447  and  _450
REMARK  188  A    between atoms: _450  and  _451
REMARK  189  A    between atoms: _454  and  _456
REMARK  190  A    between atoms: _456  and  _457
REMARK  191  A    between atoms: _456  and  _459
REMARK  192  A    between atoms: _459  and  _460
REMARK  193  A    between atoms: _463  and  _465
REMARK  194  A    between atoms: _465  and  _466
REMARK  195  A    between atoms: _465  and  _468
REMARK  196  A    between atoms: _468  and  _469
REMARK  197  A    between atoms: _473  and  _474
REMARK  198  A    between atoms: _479  and  _481
REMARK  199  A    between atoms: _481  and  _482
REMARK  200  A    between atoms: _481  and  _484
REMARK  201  A    between atoms: _487  and  _489
REMARK  202  A    between atoms: _489  and  _490
REMARK  203  A    between atoms: _489  and  _492
REMARK  204  A    between atoms: _492  and  _493
REMARK  205  A    between atoms: _498  and  _500
REMARK  206  A    between atoms: _500  and  _501
REMARK  207  A    between atoms: _500  and  _503
REMARK  208  A    between atoms: _503  and  _504
REMARK  209  A    between atoms: _507  and  _509
REMARK  210  A    between atoms: _509  and  _510
REMARK  211  A    between atoms: _509  and  _512
REMARK  212  A    between atoms: _512  and  _513
REMARK  213  A    between atoms: _516  and  _518
REMARK  214  A    between atoms: _518  and  _519
REMARK  215  A    between atoms: _521  and  _523
REMARK  216  A    between atoms: _523  and  _524
REMARK  217  A    between atoms: _523  and  _526
REMARK  218  A    between atoms: _526  and  _527
REMARK  219  A    between atoms: _527  and  _528
REMARK  220  A    between atoms: _528  and  _529
REMARK  221  A    between atoms: _538  and  _540
REMARK  222  A    between atoms: _540  and  _541
REMARK  223  A    between atoms: _540  and  _543
REMARK  224  A    between atoms: _543  and  _544
REMARK                            x       y       z     vdW  Elec       q    Type
REMARK                         _______ _______ _______ _____ _____    ______ ____
ROOT
ATOM      1  O   HOH     1      13.047  16.276  11.777  0.00  0.00    +0.000 OA
ENDROOT
TORSDOF 0
REMARK  Name = ../refined-set-2016/2qd6/2qd6_pocket.pdb
REMARK  224 active torsions:
REMARK  status: ('A' for Active; 'I' for Inactive)
REMARK    1  A    between atoms: _1  and  _3
REMARK    2  A    between atoms: _3  and  _4
REMARK    3  A    between atoms: _3  and  _6
REMARK    4  A    between atoms: _6  and  _7
REMARK    5  A    between atoms: _7  and  _8
REMARK    6  A    between atoms: _8  and  _9
REMARK    7  A    between atoms: _18  and  _20
REMARK    8  A    between atoms: _20  and  _21
REMARK    9  A    between atoms: _20  and  _23
REMARK   10  A    between atoms: _23  and  _24
REMARK   11  A    between atoms: _27  and  _29
REMARK   12  A    between atoms: _29  and  _30
REMARK   13  A    between atoms: _29  and  _32
REMARK   14  A    between atoms: _32  and  _33
REMARK   15  A    between atoms: _36  and  _38
REMARK   16  A    between atoms: _38  and  _39
REMARK   17  A    between atoms: _38  and  _41
REMARK   18  A    between atoms: _41  and  _42
REMARK   19  A    between atoms: _45  and  _47
REMARK   20  A    between atoms: _47  and  _48
REMARK   21  A    between atoms: _47  and  _50
REMARK   22  A    between atoms: _50  and  _51
REMARK   23  A    between atoms: _54  and  _56
REMARK   24  A    between atoms: _56  and  _57
REMARK   25  A    between atoms: _59  and  _61
REMARK   26  A    between atoms: _61  and  _62
REMARK   27  A    between atoms: _65  and  _67
REMARK   28  A    between atoms: _67  and  _68
REMARK   29  A    between atoms: _67  and  _70
REMARK   30  A    between atoms: _70  and  _71
REMARK   31  A    between atoms: _74  and  _76
REMARK   32  A    between atoms: _76  and  _77
REMARK   33  A    between atoms: _76  and  _79
REMARK   34  A    between atoms: _79  and  _80
REMARK   35  A    between atoms: _83  and  _85
REMARK   36  A    between atoms: _85  and  _86
REMARK   37  A    between atoms: _85  and  _88
REMARK   38  A    between atoms: _88  and  _89
REMARK   39  A    between atoms: _92  and  _94
REMARK   40  A    between atoms: _94  and  _95
REMARK   41  A    between atoms: _94  and  _97
REMARK   42  A    between atoms: _100  and  _102
REMARK   43  A    between atoms: _102  and  _103
REMARK   44  A    between atoms: _102  and  _105
REMARK   45  A    between atoms: _105  and  _106
REMARK   46  A    between atoms: _106  and  _107
REMARK   47  A    between atoms: _107  and  _108
REMARK   48  A    between atoms: _108  and  _109
REMARK   49  A    between atoms: _113  and  _115
REMARK   50  A    between atoms: _115  and  _116
REMARK   51  A    between atoms: _115  and  _118
REMARK   52  A    between atoms: _118  and  _119
REMARK   53  A    between atoms: _119  and  _120
REMARK   54  A    between atoms: _122  and  _124
REMARK   55  A    between atoms: _124  and  _125
REMARK   56  A    between atoms: _124  and  _127
REMARK   57  A    between atoms: _127  and  _128
REMARK   58  A    between atoms: _131  and  _133
REMARK   59  A    between atoms: _133  and  _134
REMARK   60  A    between atoms: _136  and  _138
REMARK   61  A    between atoms: _138  and  _139
REMARK   62  A    between atoms: _141  and  _143
REMARK   63  A    between atoms: _143  and  _144
REMARK   64  A    between atoms: _143  and  _146
REMARK   65  A    between atoms: _149  and  _151
REMARK   66  A    between atoms: _151  and  _152
REMARK   67  A    between atoms: _154  and  _156
REMARK   68  A    between atoms: _156  and  _157
REMARK   69  A    between atoms: _159  and  _161
REMARK   70  A    between atoms: _161  and  _162
REMARK   71  A    between atoms: _161  and  _164
REMARK   72  A    between atoms: _164  and  _165
REMARK   73  A    between atoms: _171  and  _173
REMARK   74  A    between atoms: _173  and  _174
REMARK   75  A    between atoms: _173  and  _176
REMARK   76  A    between atoms: _176  and  _177
REMARK   77  A    between atoms: _180  and  _182
REMARK   78  A    between atoms: _182  and  _183
REMARK   79  A    between atoms: _182  and  _185
REMARK   80  A    between atoms: _185  and  _186
REMARK   81  A    between atoms: _189  and  _191
REMARK   82  A    between atoms: _191  and  _192
REMARK   83  A    between atoms: _191  and  _194
REMARK   84  A    between atoms: _194  and  _195
REMARK   85  A    between atoms: _199  and  _200
REMARK   86  A    between atoms: _205  and  _207
REMARK   87  A    between atoms: _207  and  _208
REMARK   88  A    between atoms: _207  and  _210
REMARK   89  A    between atoms: _213  and  _215
REMARK   90  A    between atoms: _215  and  _216
REMARK   91  A    between atoms: _215  and  _218
REMARK   92  A    between atoms: _218  and  _219
REMARK   93  A    between atoms: _224  and  _226
REMARK   94  A    between atoms: _226  and  _227
REMARK   95  A    between atoms: _226  and  _229
REMARK   96  A    between atoms: _229  and  _230
REMARK   97  A    between atoms: _233  and  _235
REMARK   98  A    between atoms: _235  and  _236
REMARK   99  A    between atoms: _235  and  _238
REMARK  100  A    between atoms: _238  and  _239
REMARK  101  A    between atoms: _242  and  _244
REMARK  102  A    between atoms: _244  and  _245
REMARK  103  A    between atoms: _247  and  _249
REMARK  104  A    between atoms: _249  and  _250
REMARK  105  A    between atoms: _249  and  _252
REMARK  106  A    between atoms: _252  and  _253
REMARK  107  A    between atoms: _253  and  _254
REMARK  108  A    between atoms: _254  and  _255
REMARK  109  A    between atoms: _264  and  _266
REMARK  110  A    between atoms: _266  and  _267
REMARK  111  A    between atoms: _266  and  _269
REMARK  112  A    between atoms: _269  and  _270
REMARK  113  A    between atoms: _275  and  _277
REMARK  114  A    between atoms: _277  and  _278
REMARK  115  A    between atoms: _277  and  _280
REMARK  116  A    between atoms: _280  and  _281
REMARK  117  A    between atoms: _281  and  _282
REMARK  118  A    between atoms: _282  and  _283
REMARK  119  A    between atoms: _292  and  _294
REMARK  120  A    between atoms: _294  and  _295
REMARK  121  A    between atoms: _294  and  _297
REMARK  122  A    between atoms: _297  and  _298
REMARK  123  A    between atoms: _301  and  _303
REMARK  124  A    between atoms: _303  and  _304
REMARK  125  A    between atoms: _303  and  _306
REMARK  126  A    between atoms: _306  and  _307
REMARK  127  A    between atoms: _310  and  _312
REMARK  128  A    between atoms: _312  and  _313
REMARK  129  A    between atoms: _312  and  _315
REMARK  130  A    between atoms: _315  and  _316
REMARK  131  A    between atoms: _319  and  _321
REMARK  132  A    between atoms: _321  and  _322
REMARK  133  A    between atoms: _321  and  _324
REMARK  134  A    between atoms: _324  and  _325
REMARK  135  A    between atoms: _328  and  _330
REMARK  136  A    between atoms: _330  and  _331
REMARK  137  A    between atoms: _333  and  _335
REMARK  138  A    between atoms: _335  and  _336
REMARK  139  A    between atoms: _339  and  _341
REMARK  140  A    between atoms: _341  and  _342
REMARK  141  A    between atoms: _341  and  _344
REMARK  142  A    between atoms: _344  and  _345
REMARK  143  A    between atoms: _348  and  _350
REMARK  144  A    between atoms: _350  and  _351
REMARK  145  A    between atoms: _350  and  _353
REMARK  146  A    between atoms: _353  and  _354
REMARK  147  A    between atoms: _357  and  _359
REMARK  148  A    between atoms: _359  and  _360
REMARK  149  A    between atoms: _359  and  _362
REMARK  150  A    between atoms: _362  and  _363
REMARK  151  A    between atoms: _366  and  _368
REMARK  152  A    between atoms: _368  and  _369
REMARK  153  A    between atoms: _368  and  _371
REMARK  154  A    between atoms: _374  and  _376
REMARK  155  A    between atoms: _376  and  _377
REMARK  156  A    between atoms: _376  and  _379
REMARK  157  A    between atoms: _379  and  _380
REMARK  158  A    between atoms: _380  and  _381
REMARK  159  A    between atoms: _381  and  _382
REMARK  160  A    between atoms: _382  and  _383
REMARK  161  A    between atoms: _387  and  _389
REMARK  162  A    between atoms: _389  and  _390
REMARK  163  A    between atoms: _389  and  _392
REMARK  164  A    between atoms: _392  and  _393
REMARK  165  A    between atoms: _393  and  _394
REMARK  166  A    between atoms: _396  and  _398
REMARK  167  A    between atoms: _398  and  _399
REMARK  168  A    between atoms: _398  and  _401
REMARK  169  A    between atoms: _401  and  _402
REMARK  170  A    between atoms: _405  and  _407
REMARK  171  A    between atoms: _407  and  _408
REMARK  172  A    between atoms: _410  and  _412
REMARK  173  A    between atoms: _412  and  _413
REMARK  174  A    between atoms: _415  and  _417
REMARK  175  A    between atoms: _417  and  _418
REMARK  176  A    between atoms: _417  and  _420
REMARK  177  A    between atoms: _423  and  _425
REMARK  178  A    between atoms: _425  and  _426
REMARK  179  A    between atoms: _428  and  _430
REMARK  180  A    between atoms: _430  and  _431
REMARK  181  A    between atoms: _433  and  _435
REMARK  182  A    between atoms: _435  and  _436
REMARK  183  A    between atoms: _435  and  _438
REMARK  184  A    between atoms: _438  and  _439
REMARK  185  A    between atoms: _445  and  _447
REMARK  186  A    between atoms: _447  and  _448
REMARK  187  A    between atoms: _447  and  _450
REMARK  188  A    between atoms: _450  and  _451
REMARK  189  A    between atoms: _454  and  _456
REMARK  190  A    between atoms: _456  and  _457
REMARK  191  A    between atoms: _456  and  _459
REMARK  192  A    between atoms: _459  and  _460
REMARK  193  A    between atoms: _463  and  _465
REMARK  194  A    between atoms: _465  and  _466
REMARK  195  A    between atoms: _465  and  _468
REMARK  196  A    between atoms: _468  and  _469
REMARK  197  A    between atoms: _473  and  _474
REMARK  198  A    between atoms: _479  and  _481
REMARK  199  A    between atoms: _481  and  _482
REMARK  200  A    between atoms: _481  and  _484
REMARK  201  A    between atoms: _487  and  _489
REMARK  202  A    between atoms: _489  and  _490
REMARK  203  A    between atoms: _489  and  _492
REMARK  204  A    between atoms: _492  and  _493
REMARK  205  A    between atoms: _498  and  _500
REMARK  206  A    between atoms: _500  and  _501
REMARK  207  A    between atoms: _500  and  _503
REMARK  208  A    between atoms: _503  and  _504
REMARK  209  A    between atoms: _507  and  _509
REMARK  210  A    between atoms: _509  and  _510
REMARK  211  A    between atoms: _509  and  _512
REMARK  212  A    between atoms: _512  and  _513
REMARK  213  A    between atoms: _516  and  _518
REMARK  214  A    between atoms: _518  and  _519
REMARK  215  A    between atoms: _521  and  _523
REMARK  216  A    between atoms: _523  and  _524
REMARK  217  A    between atoms: _523  and  _526
REMARK  218  A    between atoms: _526  and  _527
REMARK  219  A    between atoms: _527  and  _528
REMARK  220  A    between atoms: _528  and  _529
REMARK  221  A    between atoms: _538  and  _540
REMARK  222  A    between atoms: _540  and  _541
REMARK  223  A    between atoms: _540  and  _543
REMARK  224  A    between atoms: _543  and  _544
REMARK                            x       y       z     vdW  Elec       q    Type
REMARK                         _______ _______ _______ _____ _____    ______ ____
ROOT
ATOM      1  O   HOH     1      23.060  28.027  26.040  0.00  0.00    +0.000 OA
ENDROOT
TORSDOF 0
REMARK  Name = ../refined-set-2016/2qd6/2qd6_pocket.pdb
REMARK  224 active torsions:
REMARK  status: ('A' for Active; 'I' for Inactive)
REMARK    1  A    between atoms: _1  and  _3
REMARK    2  A    between atoms: _3  and  _4
REMARK    3  A    between atoms: _3  and  _6
REMARK    4  A    between atoms: _6  and  _7
REMARK    5  A    between atoms: _7  and  _8
REMARK    6  A    between atoms: _8  and  _9
REMARK    7  A    between atoms: _18  and  _20
REMARK    8  A    between atoms: _20  and  _21
REMARK    9  A    between atoms: _20  and  _23
REMARK   10  A    between atoms: _23  and  _24
REMARK   11  A    between atoms: _27  and  _29
REMARK   12  A    between atoms: _29  and  _30
REMARK   13  A    between atoms: _29  and  _32
REMARK   14  A    between atoms: _32  and  _33
REMARK   15  A    between atoms: _36  and  _38
REMARK   16  A    between atoms: _38  and  _39
REMARK   17  A    between atoms: _38  and  _41
REMARK   18  A    between atoms: _41  and  _42
REMARK   19  A    between atoms: _45  and  _47
REMARK   20  A    between atoms: _47  and  _48
REMARK   21  A    between atoms: _47  and  _50
REMARK   22  A    between atoms: _50  and  _51
REMARK   23  A    between atoms: _54  and  _56
REMARK   24  A    between atoms: _56  and  _57
REMARK   25  A    between atoms: _59  and  _61
REMARK   26  A    between atoms: _61  and  _62
REMARK   27  A    between atoms: _65  and  _67
REMARK   28  A    between atoms: _67  and  _68
REMARK   29  A    between atoms: _67  and  _70
REMARK   30  A    between atoms: _70  and  _71
REMARK   31  A    between atoms: _74  and  _76
REMARK   32  A    between atoms: _76  and  _77
REMARK   33  A    between atoms: _76  and  _79
REMARK   34  A    between atoms: _79  and  _80
REMARK   35  A    between atoms: _83  and  _85
REMARK   36  A    between atoms: _85  and  _86
REMARK   37  A    between atoms: _85  and  _88
REMARK   38  A    between atoms: _88  and  _89
REMARK   39  A    between atoms: _92  and  _94
REMARK   40  A    between atoms: _94  and  _95
REMARK   41  A    between atoms: _94  and  _97
REMARK   42  A    between atoms: _100  and  _102
REMARK   43  A    between atoms: _102  and  _103
REMARK   44  A    between atoms: _102  and  _105
REMARK   45  A    between atoms: _105  and  _106
REMARK   46  A    between atoms: _106  and  _107
REMARK   47  A    between atoms: _107  and  _108
REMARK   48  A    between atoms: _108  and  _109
REMARK   49  A    between atoms: _113  and  _115
REMARK   50  A    between atoms: _115  and  _116
REMARK   51  A    between atoms: _115  and  _118
REMARK   52  A    between atoms: _118  and  _119
REMARK   53  A    between atoms: _119  and  _120
REMARK   54  A    between atoms: _122  and  _124
REMARK   55  A    between atoms: _124  and  _125
REMARK   56  A    between atoms: _124  and  _127
REMARK   57  A    between atoms: _127  and  _128
REMARK   58  A    between atoms: _131  and  _133
REMARK   59  A    between atoms: _133  and  _134
REMARK   60  A    between atoms: _136  and  _138
REMARK   61  A    between atoms: _138  and  _139
REMARK   62  A    between atoms: _141  and  _143
REMARK   63  A    between atoms: _143  and  _144
REMARK   64  A    between atoms: _143  and  _146
REMARK   65  A    between atoms: _149  and  _151
REMARK   66  A    between atoms: _151  and  _152
REMARK   67  A    between atoms: _154  and  _156
REMARK   68  A    between atoms: _156  and  _157
REMARK   69  A    between atoms: _159  and  _161
REMARK   70  A    between atoms: _161  and  _162
REMARK   71  A    between atoms: _161  and  _164
REMARK   72  A    between atoms: _164  and  _165
REMARK   73  A    between atoms: _171  and  _173
REMARK   74  A    between atoms: _173  and  _174
REMARK   75  A    between atoms: _173  and  _176
REMARK   76  A    between atoms: _176  and  _177
REMARK   77  A    between atoms: _180  and  _182
REMARK   78  A    between atoms: _182  and  _183
REMARK   79  A    between atoms: _182  and  _185
REMARK   80  A    between atoms: _185  and  _186
REMARK   81  A    between atoms: _189  and  _191
REMARK   82  A    between atoms: _191  and  _192
REMARK   83  A    between atoms: _191  and  _194
REMARK   84  A    between atoms: _194  and  _195
REMARK   85  A    between atoms: _199  and  _200
REMARK   86  A    between atoms: _205  and  _207
REMARK   87  A    between atoms: _207  and  _208
REMARK   88  A    between atoms: _207  and  _210
REMARK   89  A    between atoms: _213  and  _215
REMARK   90  A    between atoms: _215  and  _216
REMARK   91  A    between atoms: _215  and  _218
REMARK   92  A    between atoms: _218  and  _219
REMARK   93  A    between atoms: _224  and  _226
REMARK   94  A    between atoms: _226  and  _227
REMARK   95  A    between atoms: _226  and  _229
REMARK   96  A    between atoms: _229  and  _230
REMARK   97  A    between atoms: _233  and  _235
REMARK   98  A    between atoms: _235  and  _236
REMARK   99  A    between atoms: _235  and  _238
REMARK  100  A    between atoms: _238  and  _239
REMARK  101  A    between atoms: _242  and  _244
REMARK  102  A    between atoms: _244  and  _245
REMARK  103  A    between atoms: _247  and  _249
REMARK  104  A    between atoms: _249  and  _250
REMARK  105  A    between atoms: _249  and  _252
REMARK  106  A    between atoms: _252  and  _253
REMARK  107  A    between atoms: _253  and  _254
REMARK  108  A    between atoms: _254  and  _255
REMARK  109  A    between atoms: _264  and  _266
REMARK  110  A    between atoms: _266  and  _267
REMARK  111  A    between atoms: _266  and  _269
REMARK  112  A    between atoms: _269  and  _270
REMARK  113  A    between atoms: _275  and  _277
REMARK  114  A    between atoms: _277  and  _278
REMARK  115  A    between atoms: _277  and  _280
REMARK  116  A    between atoms: _280  and  _281
REMARK  117  A    between atoms: _281  and  _282
REMARK  118  A    between atoms: _282  and  _283
REMARK  119  A    between atoms: _292  and  _294
REMARK  120  A    between atoms: _294  and  _295
REMARK  121  A    between atoms: _294  and  _297
REMARK  122  A    between atoms: _297  and  _298
REMARK  123  A    between atoms: _301  and  _303
REMARK  124  A    between atoms: _303  and  _304
REMARK  125  A    between atoms: _303  and  _306
REMARK  126  A    between atoms: _306  and  _307
REMARK  127  A    between atoms: _310  and  _312
REMARK  128  A    between atoms: _312  and  _313
REMARK  129  A    between atoms: _312  and  _315
REMARK  130  A    between atoms: _315  and  _316
REMARK  131  A    between atoms: _319  and  _321
REMARK  132  A    between atoms: _321  and  _322
REMARK  133  A    between atoms: _321  and  _324
REMARK  134  A    between atoms: _324  and  _325
REMARK  135  A    between atoms: _328  and  _330
REMARK  136  A    between atoms: _330  and  _331
REMARK  137  A    between atoms: _333  and  _335
REMARK  138  A    between atoms: _335  and  _336
REMARK  139  A    between atoms: _339  and  _341
REMARK  140  A    between atoms: _341  and  _342
REMARK  141  A    between atoms: _341  and  _344
REMARK  142  A    between atoms: _344  and  _345
REMARK  143  A    between atoms: _348  and  _350
REMARK  144  A    between atoms: _350  and  _351
REMARK  145  A    between atoms: _350  and  _353
REMARK  146  A    between atoms: _353  and  _354
REMARK  147  A    between atoms: _357  and  _359
REMARK  148  A    between atoms: _359  and  _360
REMARK  149  A    between atoms: _359  and  _362
REMARK  150  A    between atoms: _362  and  _363
REMARK  151  A    between atoms: _366  and  _368
REMARK  152  A    between atoms: _368  and  _369
REMARK  153  A    between atoms: _368  and  _371
REMARK  154  A    between atoms: _374  and  _376
REMARK  155  A    between atoms: _376  and  _377
REMARK  156  A    between atoms: _376  and  _379
REMARK  157  A    between atoms: _379  and  _380
REMARK  158  A    between atoms: _380  and  _381
REMARK  159  A    between atoms: _381  and  _382
REMARK  160  A    between atoms: _382  and  _383
REMARK  161  A    between atoms: _387  and  _389
REMARK  162  A    between atoms: _389  and  _390
REMARK  163  A    between atoms: _389  and  _392
REMARK  164  A    between atoms: _392  and  _393
REMARK  165  A    between atoms: _393  and  _394
REMARK  166  A    between atoms: _396  and  _398
REMARK  167  A    between atoms: _398  and  _399
REMARK  168  A    between atoms: _398  and  _401
REMARK  169  A    between atoms: _401  and  _402
REMARK  170  A    between atoms: _405  and  _407
REMARK  171  A    between atoms: _407  and  _408
REMARK  172  A    between atoms: _410  and  _412
REMARK  173  A    between atoms: _412  and  _413
REMARK  174  A    between atoms: _415  and  _417
REMARK  175  A    between atoms: _417  and  _418
REMARK  176  A    between atoms: _417  and  _420
REMARK  177  A    between atoms: _423  and  _425
REMARK  178  A    between atoms: _425  and  _426
REMARK  179  A    between atoms: _428  and  _430
REMARK  180  A    between atoms: _430  and  _431
REMARK  181  A    between atoms: _433  and  _435
REMARK  182  A    between atoms: _435  and  _436
REMARK  183  A    between atoms: _435  and  _438
REMARK  184  A    between atoms: _438  and  _439
REMARK  185  A    between atoms: _445  and  _447
REMARK  186  A    between atoms: _447  and  _448
REMARK  187  A    between atoms: _447  and  _450
REMARK  188  A    between atoms: _450  and  _451
REMARK  189  A    between atoms: _454  and  _456
REMARK  190  A    between atoms: _456  and  _457
REMARK  191  A    between atoms: _456  and  _459
REMARK  192  A    between atoms: _459  and  _460
REMARK  193  A    between atoms: _463  and  _465
REMARK  194  A    between atoms: _465  and  _466
REMARK  195  A    between atoms: _465  and  _468
REMARK  196  A    between atoms: _468  and  _469
REMARK  197  A    between atoms: _473  and  _474
REMARK  198  A    between atoms: _479  and  _481
REMARK  199  A    between atoms: _481  and  _482
REMARK  200  A    between atoms: _481  and  _484
REMARK  201  A    between atoms: _487  and  _489
REMARK  202  A    between atoms: _489  and  _490
REMARK  203  A    between atoms: _489  and  _492
REMARK  204  A    between atoms: _492  and  _493
REMARK  205  A    between atoms: _498  and  _500
REMARK  206  A    between atoms: _500  and  _501
REMARK  207  A    between atoms: _500  and  _503
REMARK  208  A    between atoms: _503  and  _504
REMARK  209  A    between atoms: _507  and  _509
REMARK  210  A    between atoms: _509  and  _510
REMARK  211  A    between atoms: _509  and  _512
REMARK  212  A    between atoms: _512  and  _513
REMARK  213  A    between atoms: _516  and  _518
REMARK  214  A    between atoms: _518  and  _519
REMARK  215  A    between atoms: _521  and  _523
REMARK  216  A    between atoms: _523  and  _524
REMARK  217  A    between atoms: _523  and  _526
REMARK  218  A    between atoms: _526  and  _527
REMARK  219  A    between atoms: _527  and  _528
REMARK  220  A    between atoms: _528  and  _529
REMARK  221  A    between atoms: _538  and  _540
REMARK  222  A    between atoms: _540  and  _541
REMARK  223  A    between atoms: _540  and  _543
REMARK  224  A    between atoms: _543  and  _544
REMARK                            x       y       z     vdW  Elec       q    Type
REMARK                         _______ _______ _______ _____ _____    ______ ____
ROOT
ATOM      1  O   HOH     1       6.700  15.900  18.233  0.00  0.00    +0.000 OA
ENDROOT
TORSDOF 0
REMARK  Name = ../refined-set-2016/2qd6/2qd6_pocket.pdb
REMARK  224 active torsions:
REMARK  status: ('A' for Active; 'I' for Inactive)
REMARK    1  A    between atoms: _1  and  _3
REMARK    2  A    between atoms: _3  and  _4
REMARK    3  A    between atoms: _3  and  _6
REMARK    4  A    between atoms: _6  and  _7
REMARK    5  A    between atoms: _7  and  _8
REMARK    6  A    between atoms: _8  and  _9
REMARK    7  A    between atoms: _18  and  _20
REMARK    8  A    between atoms: _20  and  _21
REMARK    9  A    between atoms: _20  and  _23
REMARK   10  A    between atoms: _23  and  _24
REMARK   11  A    between atoms: _27  and  _29
REMARK   12  A    between atoms: _29  and  _30
REMARK   13  A    between atoms: _29  and  _32
REMARK   14  A    between atoms: _32  and  _33
REMARK   15  A    between atoms: _36  and  _38
REMARK   16  A    between atoms: _38  and  _39
REMARK   17  A    between atoms: _38  and  _41
REMARK   18  A    between atoms: _41  and  _42
REMARK   19  A    between atoms: _45  and  _47
REMARK   20  A    between atoms: _47  and  _48
REMARK   21  A    between atoms: _47  and  _50
REMARK   22  A    between atoms: _50  and  _51
REMARK   23  A    between atoms: _54  and  _56
REMARK   24  A    between atoms: _56  and  _57
REMARK   25  A    between atoms: _59  and  _61
REMARK   26  A    between atoms: _61  and  _62
REMARK   27  A    between atoms: _65  and  _67
REMARK   28  A    between atoms: _67  and  _68
REMARK   29  A    between atoms: _67  and  _70
REMARK   30  A    between atoms: _70  and  _71
REMARK   31  A    between atoms: _74  and  _76
REMARK   32  A    between atoms: _76  and  _77
REMARK   33  A    between atoms: _76  and  _79
REMARK   34  A    between atoms: _79  and  _80
REMARK   35  A    between atoms: _83  and  _85
REMARK   36  A    between atoms: _85  and  _86
REMARK   37  A    between atoms: _85  and  _88
REMARK   38  A    between atoms: _88  and  _89
REMARK   39  A    between atoms: _92  and  _94
REMARK   40  A    between atoms: _94  and  _95
REMARK   41  A    between atoms: _94  and  _97
REMARK   42  A    between atoms: _100  and  _102
REMARK   43  A    between atoms: _102  and  _103
REMARK   44  A    between atoms: _102  and  _105
REMARK   45  A    between atoms: _105  and  _106
REMARK   46  A    between atoms: _106  and  _107
REMARK   47  A    between atoms: _107  and  _108
REMARK   48  A    between atoms: _108  and  _109
REMARK   49  A    between atoms: _113  and  _115
REMARK   50  A    between atoms: _115  and  _116
REMARK   51  A    between atoms: _115  and  _118
REMARK   52  A    between atoms: _118  and  _119
REMARK   53  A    between atoms: _119  and  _120
REMARK   54  A    between atoms: _122  and  _124
REMARK   55  A    between atoms: _124  and  _125
REMARK   56  A    between atoms: _124  and  _127
REMARK   57  A    between atoms: _127  and  _128
REMARK   58  A    between atoms: _131  and  _133
REMARK   59  A    between atoms: _133  and  _134
REMARK   60  A    between atoms: _136  and  _138
REMARK   61  A    between atoms: _138  and  _139
REMARK   62  A    between atoms: _141  and  _143
REMARK   63  A    between atoms: _143  and  _144
REMARK   64  A    between atoms: _143  and  _146
REMARK   65  A    between atoms: _149  and  _151
REMARK   66  A    between atoms: _151  and  _152
REMARK   67  A    between atoms: _154  and  _156
REMARK   68  A    between atoms: _156  and  _157
REMARK   69  A    between atoms: _159  and  _161
REMARK   70  A    between atoms: _161  and  _162
REMARK   71  A    between atoms: _161  and  _164
REMARK   72  A    between atoms: _164  and  _165
REMARK   73  A    between atoms: _171  and  _173
REMARK   74  A    between atoms: _173  and  _174
REMARK   75  A    between atoms: _173  and  _176
REMARK   76  A    between atoms: _176  and  _177
REMARK   77  A    between atoms: _180  and  _182
REMARK   78  A    between atoms: _182  and  _183
REMARK   79  A    between atoms: _182  and  _185
REMARK   80  A    between atoms: _185  and  _186
REMARK   81  A    between atoms: _189  and  _191
REMARK   82  A    between atoms: _191  and  _192
REMARK   83  A    between atoms: _191  and  _194
REMARK   84  A    between atoms: _194  and  _195
REMARK   85  A    between atoms: _199  and  _200
REMARK   86  A    between atoms: _205  and  _207
REMARK   87  A    between atoms: _207  and  _208
REMARK   88  A    between atoms: _207  and  _210
REMARK   89  A    between atoms: _213  and  _215
REMARK   90  A    between atoms: _215  and  _216
REMARK   91  A    between atoms: _215  and  _218
REMARK   92  A    between atoms: _218  and  _219
REMARK   93  A    between atoms: _224  and  _226
REMARK   94  A    between atoms: _226  and  _227
REMARK   95  A    between atoms: _226  and  _229
REMARK   96  A    between atoms: _229  and  _230
REMARK   97  A    between atoms: _233  and  _235
REMARK   98  A    between atoms: _235  and  _236
REMARK   99  A    between atoms: _235  and  _238
REMARK  100  A    between atoms: _238  and  _239
REMARK  101  A    between atoms: _242  and  _244
REMARK  102  A    between atoms: _244  and  _245
REMARK  103  A    between atoms: _247  and  _249
REMARK  104  A    between atoms: _249  and  _250
REMARK  105  A    between atoms: _249  and  _252
REMARK  106  A    between atoms: _252  and  _253
REMARK  107  A    between atoms: _253  and  _254
REMARK  108  A    between atoms: _254  and  _255
REMARK  109  A    between atoms: _264  and  _266
REMARK  110  A    between atoms: _266  and  _267
REMARK  111  A    between atoms: _266  and  _269
REMARK  112  A    between atoms: _269  and  _270
REMARK  113  A    between atoms: _275  and  _277
REMARK  114  A    between atoms: _277  and  _278
REMARK  115  A    between atoms: _277  and  _280
REMARK  116  A    between atoms: _280  and  _281
REMARK  117  A    between atoms: _281  and  _282
REMARK  118  A    between atoms: _282  and  _283
REMARK  119  A    between atoms: _292  and  _294
REMARK  120  A    between atoms: _294  and  _295
REMARK  121  A    between atoms: _294  and  _297
REMARK  122  A    between atoms: _297  and  _298
REMARK  123  A    between atoms: _301  and  _303
REMARK  124  A    between atoms: _303  and  _304
REMARK  125  A    between atoms: _303  and  _306
REMARK  126  A    between atoms: _306  and  _307
REMARK  127  A    between atoms: _310  and  _312
REMARK  128  A    between atoms: _312  and  _313
REMARK  129  A    between atoms: _312  and  _315
REMARK  130  A    between atoms: _315  and  _316
REMARK  131  A    between atoms: _319  and  _321
REMARK  132  A    between atoms: _321  and  _322
REMARK  133  A    between atoms: _321  and  _324
REMARK  134  A    between atoms: _324  and  _325
REMARK  135  A    between atoms: _328  and  _330
REMARK  136  A    between atoms: _330  and  _331
REMARK  137  A    between atoms: _333  and  _335
REMARK  138  A    between atoms: _335  and  _336
REMARK  139  A    between atoms: _339  and  _341
REMARK  140  A    between atoms: _341  and  _342
REMARK  141  A    between atoms: _341  and  _344
REMARK  142  A    between atoms: _344  and  _345
REMARK  143  A    between atoms: _348  and  _350
REMARK  144  A    between atoms: _350  and  _351
REMARK  145  A    between atoms: _350  and  _353
REMARK  146  A    between atoms: _353  and  _354
REMARK  147  A    between atoms: _357  and  _359
REMARK  148  A    between atoms: _359  and  _360
REMARK  149  A    between atoms: _359  and  _362
REMARK  150  A    between atoms: _362  and  _363
REMARK  151  A    between atoms: _366  and  _368
REMARK  152  A    between atoms: _368  and  _369
REMARK  153  A    between atoms: _368  and  _371
REMARK  154  A    between atoms: _374  and  _376
REMARK  155  A    between atoms: _376  and  _377
REMARK  156  A    between atoms: _376  and  _379
REMARK  157  A    between atoms: _379  and  _380
REMARK  158  A    between atoms: _380  and  _381
REMARK  159  A    between atoms: _381  and  _382
REMARK  160  A    between atoms: _382  and  _383
REMARK  161  A    between atoms: _387  and  _389
REMARK  162  A    between atoms: _389  and  _390
REMARK  163  A    between atoms: _389  and  _392
REMARK  164  A    between atoms: _392  and  _393
REMARK  165  A    between atoms: _393  and  _394
REMARK  166  A    between atoms: _396  and  _398
REMARK  167  A    between atoms: _398  and  _399
REMARK  168  A    between atoms: _398  and  _401
REMARK  169  A    between atoms: _401  and  _402
REMARK  170  A    between atoms: _405  and  _407
REMARK  171  A    between atoms: _407  and  _408
REMARK  172  A    between atoms: _410  and  _412
REMARK  173  A    between atoms: _412  and  _413
REMARK  174  A    between atoms: _415  and  _417
REMARK  175  A    between atoms: _417  and  _418
REMARK  176  A    between atoms: _417  and  _420
REMARK  177  A    between atoms: _423  and  _425
REMARK  178  A    between atoms: _425  and  _426
REMARK  179  A    between atoms: _428  and  _430
REMARK  180  A    between atoms: _430  and  _431
REMARK  181  A    between atoms: _433  and  _435
REMARK  182  A    between atoms: _435  and  _436
REMARK  183  A    between atoms: _435  and  _438
REMARK  184  A    between atoms: _438  and  _439
REMARK  185  A    between atoms: _445  and  _447
REMARK  186  A    between atoms: _447  and  _448
REMARK  187  A    between atoms: _447  and  _450
REMARK  188  A    between atoms: _450  and  _451
REMARK  189  A    between atoms: _454  and  _456
REMARK  190  A    between atoms: _456  and  _457
REMARK  191  A    between atoms: _456  and  _459
REMARK  192  A    between atoms: _459  and  _460
REMARK  193  A    between atoms: _463  and  _465
REMARK  194  A    between atoms: _465  and  _466
REMARK  195  A    between atoms: _465  and  _468
REMARK  196  A    between atoms: _468  and  _469
REMARK  197  A    between atoms: _473  and  _474
REMARK  198  A    between atoms: _479  and  _481
REMARK  199  A    between atoms: _481  and  _482
REMARK  200  A    between atoms: _481  and  _484
REMARK  201  A    between atoms: _487  and  _489
REMARK  202  A    between atoms: _489  and  _490
REMARK  203  A    between atoms: _489  and  _492
REMARK  204  A    between atoms: _492  and  _493
REMARK  205  A    between atoms: _498  and  _500
REMARK  206  A    between atoms: _500  and  _501
REMARK  207  A    between atoms: _500  and  _503
REMARK  208  A    between atoms: _503  and  _504
REMARK  209  A    between atoms: _507  and  _509
REMARK  210  A    between atoms: _509  and  _510
REMARK  211  A    between atoms: _509  and  _512
REMARK  212  A    between atoms: _512  and  _513
REMARK  213  A    between atoms: _516  and  _518
REMARK  214  A    between atoms: _518  and  _519
REMARK  215  A    between atoms: _521  and  _523
REMARK  216  A    between atoms: _523  and  _524
REMARK  217  A    between atoms: _523  and  _526
REMARK  218  A    between atoms: _526  and  _527
REMARK  219  A    between atoms: _527  and  _528
REMARK  220  A    between atoms: _528  and  _529
REMARK  221  A    between atoms: _538  and  _540
REMARK  222  A    between atoms: _540  and  _541
REMARK  223  A    between atoms: _540  and  _543
REMARK  224  A    between atoms: _543  and  _544
REMARK                            x       y       z     vdW  Elec       q    Type
REMARK                         _______ _______ _______ _____ _____    ______ ____
ROOT
ATOM      1  O   HOH     1      10.075  20.251  17.952  0.00  0.00    +0.000 OA
ENDROOT
TORSDOF 0
REMARK  Name = ../refined-set-2016/2qd6/2qd6_pocket.pdb
REMARK  224 active torsions:
REMARK  status: ('A' for Active; 'I' for Inactive)
REMARK    1  A    between atoms: _1  and  _3
REMARK    2  A    between atoms: _3  and  _4
REMARK    3  A    between atoms: _3  and  _6
REMARK    4  A    between atoms: _6  and  _7
REMARK    5  A    between atoms: _7  and  _8
REMARK    6  A    between atoms: _8  and  _9
REMARK    7  A    between atoms: _18  and  _20
REMARK    8  A    between atoms: _20  and  _21
REMARK    9  A    between atoms: _20  and  _23
REMARK   10  A    between atoms: _23  and  _24
REMARK   11  A    between atoms: _27  and  _29
REMARK   12  A    between atoms: _29  and  _30
REMARK   13  A    between atoms: _29  and  _32
REMARK   14  A    between atoms: _32  and  _33
REMARK   15  A    between atoms: _36  and  _38
REMARK   16  A    between atoms: _38  and  _39
REMARK   17  A    between atoms: _38  and  _41
REMARK   18  A    between atoms: _41  and  _42
REMARK   19  A    between atoms: _45  and  _47
REMARK   20  A    between atoms: _47  and  _48
REMARK   21  A    between atoms: _47  and  _50
REMARK   22  A    between atoms: _50  and  _51
REMARK   23  A    between atoms: _54  and  _56
REMARK   24  A    between atoms: _56  and  _57
REMARK   25  A    between atoms: _59  and  _61
REMARK   26  A    between atoms: _61  and  _62
REMARK   27  A    between atoms: _65  and  _67
REMARK   28  A    between atoms: _67  and  _68
REMARK   29  A    between atoms: _67  and  _70
REMARK   30  A    between atoms: _70  and  _71
REMARK   31  A    between atoms: _74  and  _76
REMARK   32  A    between atoms: _76  and  _77
REMARK   33  A    between atoms: _76  and  _79
REMARK   34  A    between atoms: _79  and  _80
REMARK   35  A    between atoms: _83  and  _85
REMARK   36  A    between atoms: _85  and  _86
REMARK   37  A    between atoms: _85  and  _88
REMARK   38  A    between atoms: _88  and  _89
REMARK   39  A    between atoms: _92  and  _94
REMARK   40  A    between atoms: _94  and  _95
REMARK   41  A    between atoms: _94  and  _97
REMARK   42  A    between atoms: _100  and  _102
REMARK   43  A    between atoms: _102  and  _103
REMARK   44  A    between atoms: _102  and  _105
REMARK   45  A    between atoms: _105  and  _106
REMARK   46  A    between atoms: _106  and  _107
REMARK   47  A    between atoms: _107  and  _108
REMARK   48  A    between atoms: _108  and  _109
REMARK   49  A    between atoms: _113  and  _115
REMARK   50  A    between atoms: _115  and  _116
REMARK   51  A    between atoms: _115  and  _118
REMARK   52  A    between atoms: _118  and  _119
REMARK   53  A    between atoms: _119  and  _120
REMARK   54  A    between atoms: _122  and  _124
REMARK   55  A    between atoms: _124  and  _125
REMARK   56  A    between atoms: _124  and  _127
REMARK   57  A    between atoms: _127  and  _128
REMARK   58  A    between atoms: _131  and  _133
REMARK   59  A    between atoms: _133  and  _134
REMARK   60  A    between atoms: _136  and  _138
REMARK   61  A    between atoms: _138  and  _139
REMARK   62  A    between atoms: _141  and  _143
REMARK   63  A    between atoms: _143  and  _144
REMARK   64  A    between atoms: _143  and  _146
REMARK   65  A    between atoms: _149  and  _151
REMARK   66  A    between atoms: _151  and  _152
REMARK   67  A    between atoms: _154  and  _156
REMARK   68  A    between atoms: _156  and  _157
REMARK   69  A    between atoms: _159  and  _161
REMARK   70  A    between atoms: _161  and  _162
REMARK   71  A    between atoms: _161  and  _164
REMARK   72  A    between atoms: _164  and  _165
REMARK   73  A    between atoms: _171  and  _173
REMARK   74  A    between atoms: _173  and  _174
REMARK   75  A    between atoms: _173  and  _176
REMARK   76  A    between atoms: _176  and  _177
REMARK   77  A    between atoms: _180  and  _182
REMARK   78  A    between atoms: _182  and  _183
REMARK   79  A    between atoms: _182  and  _185
REMARK   80  A    between atoms: _185  and  _186
REMARK   81  A    between atoms: _189  and  _191
REMARK   82  A    between atoms: _191  and  _192
REMARK   83  A    between atoms: _191  and  _194
REMARK   84  A    between atoms: _194  and  _195
REMARK   85  A    between atoms: _199  and  _200
REMARK   86  A    between atoms: _205  and  _207
REMARK   87  A    between atoms: _207  and  _208
REMARK   88  A    between atoms: _207  and  _210
REMARK   89  A    between atoms: _213  and  _215
REMARK   90  A    between atoms: _215  and  _216
REMARK   91  A    between atoms: _215  and  _218
REMARK   92  A    between atoms: _218  and  _219
REMARK   93  A    between atoms: _224  and  _226
REMARK   94  A    between atoms: _226  and  _227
REMARK   95  A    between atoms: _226  and  _229
REMARK   96  A    between atoms: _229  and  _230
REMARK   97  A    between atoms: _233  and  _235
REMARK   98  A    between atoms: _235  and  _236
REMARK   99  A    between atoms: _235  and  _238
REMARK  100  A    between atoms: _238  and  _239
REMARK  101  A    between atoms: _242  and  _244
REMARK  102  A    between atoms: _244  and  _245
REMARK  103  A    between atoms: _247  and  _249
REMARK  104  A    between atoms: _249  and  _250
REMARK  105  A    between atoms: _249  and  _252
REMARK  106  A    between atoms: _252  and  _253
REMARK  107  A    between atoms: _253  and  _254
REMARK  108  A    between atoms: _254  and  _255
REMARK  109  A    between atoms: _264  and  _266
REMARK  110  A    between atoms: _266  and  _267
REMARK  111  A    between atoms: _266  and  _269
REMARK  112  A    between atoms: _269  and  _270
REMARK  113  A    between atoms: _275  and  _277
REMARK  114  A    between atoms: _277  and  _278
REMARK  115  A    between atoms: _277  and  _280
REMARK  116  A    between atoms: _280  and  _281
REMARK  117  A    between atoms: _281  and  _282
REMARK  118  A    between atoms: _282  and  _283
REMARK  119  A    between atoms: _292  and  _294
REMARK  120  A    between atoms: _294  and  _295
REMARK  121  A    between atoms: _294  and  _297
REMARK  122  A    between atoms: _297  and  _298
REMARK  123  A    between atoms: _301  and  _303
REMARK  124  A    between atoms: _303  and  _304
REMARK  125  A    between atoms: _303  and  _306
REMARK  126  A    between atoms: _306  and  _307
REMARK  127  A    between atoms: _310  and  _312
REMARK  128  A    between atoms: _312  and  _313
REMARK  129  A    between atoms: _312  and  _315
REMARK  130  A    between atoms: _315  and  _316
REMARK  131  A    between atoms: _319  and  _321
REMARK  132  A    between atoms: _321  and  _322
REMARK  133  A    between atoms: _321  and  _324
REMARK  134  A    between atoms: _324  and  _325
REMARK  135  A    between atoms: _328  and  _330
REMARK  136  A    between atoms: _330  and  _331
REMARK  137  A    between atoms: _333  and  _335
REMARK  138  A    between atoms: _335  and  _336
REMARK  139  A    between atoms: _339  and  _341
REMARK  140  A    between atoms: _341  and  _342
REMARK  141  A    between atoms: _341  and  _344
REMARK  142  A    between atoms: _344  and  _345
REMARK  143  A    between atoms: _348  and  _350
REMARK  144  A    between atoms: _350  and  _351
REMARK  145  A    between atoms: _350  and  _353
REMARK  146  A    between atoms: _353  and  _354
REMARK  147  A    between atoms: _357  and  _359
REMARK  148  A    between atoms: _359  and  _360
REMARK  149  A    between atoms: _359  and  _362
REMARK  150  A    between atoms: _362  and  _363
REMARK  151  A    between atoms: _366  and  _368
REMARK  152  A    between atoms: _368  and  _369
REMARK  153  A    between atoms: _368  and  _371
REMARK  154  A    between atoms: _374  and  _376
REMARK  155  A    between atoms: _376  and  _377
REMARK  156  A    between atoms: _376  and  _379
REMARK  157  A    between atoms: _379  and  _380
REMARK  158  A    between atoms: _380  and  _381
REMARK  159  A    between atoms: _381  and  _382
REMARK  160  A    between atoms: _382  and  _383
REMARK  161  A    between atoms: _387  and  _389
REMARK  162  A    between atoms: _389  and  _390
REMARK  163  A    between atoms: _389  and  _392
REMARK  164  A    between atoms: _392  and  _393
REMARK  165  A    between atoms: _393  and  _394
REMARK  166  A    between atoms: _396  and  _398
REMARK  167  A    between atoms: _398  and  _399
REMARK  168  A    between atoms: _398  and  _401
REMARK  169  A    between atoms: _401  and  _402
REMARK  170  A    between atoms: _405  and  _407
REMARK  171  A    between atoms: _407  and  _408
REMARK  172  A    between atoms: _410  and  _412
REMARK  173  A    between atoms: _412  and  _413
REMARK  174  A    between atoms: _415  and  _417
REMARK  175  A    between atoms: _417  and  _418
REMARK  176  A    between atoms: _417  and  _420
REMARK  177  A    between atoms: _423  and  _425
REMARK  178  A    between atoms: _425  and  _426
REMARK  179  A    between atoms: _428  and  _430
REMARK  180  A    between atoms: _430  and  _431
REMARK  181  A    between atoms: _433  and  _435
REMARK  182  A    between atoms: _435  and  _436
REMARK  183  A    between atoms: _435  and  _438
REMARK  184  A    between atoms: _438  and  _439
REMARK  185  A    between atoms: _445  and  _447
REMARK  186  A    between atoms: _447  and  _448
REMARK  187  A    between atoms: _447  and  _450
REMARK  188  A    between atoms: _450  and  _451
REMARK  189  A    between atoms: _454  and  _456
REMARK  190  A    between atoms: _456  and  _457
REMARK  191  A    between atoms: _456  and  _459
REMARK  192  A    between atoms: _459  and  _460
REMARK  193  A    between atoms: _463  and  _465
REMARK  194  A    between atoms: _465  and  _466
REMARK  195  A    between atoms: _465  and  _468
REMARK  196  A    between atoms: _468  and  _469
REMARK  197  A    between atoms: _473  and  _474
REMARK  198  A    between atoms: _479  and  _481
REMARK  199  A    between atoms: _481  and  _482
REMARK  200  A    between atoms: _481  and  _484
REMARK  201  A    between atoms: _487  and  _489
REMARK  202  A    between atoms: _489  and  _490
REMARK  203  A    between atoms: _489  and  _492
REMARK  204  A    between atoms: _492  and  _493
REMARK  205  A    between atoms: _498  and  _500
REMARK  206  A    between atoms: _500  and  _501
REMARK  207  A    between atoms: _500  and  _503
REMARK  208  A    between atoms: _503  and  _504
REMARK  209  A    between atoms: _507  and  _509
REMARK  210  A    between atoms: _509  and  _510
REMARK  211  A    between atoms: _509  and  _512
REMARK  212  A    between atoms: _512  and  _513
REMARK  213  A    between atoms: _516  and  _518
REMARK  214  A    between atoms: _518  and  _519
REMARK  215  A    between atoms: _521  and  _523
REMARK  216  A    between atoms: _523  and  _524
REMARK  217  A    between atoms: _523  and  _526
REMARK  218  A    between atoms: _526  and  _527
REMARK  219  A    between atoms: _527  and  _528
REMARK  220  A    between atoms: _528  and  _529
REMARK  221  A    between atoms: _538  and  _540
REMARK  222  A    between atoms: _540  and  _541
REMARK  223  A    between atoms: _540  and  _543
REMARK  224  A    between atoms: _543  and  _544
REMARK                            x       y       z     vdW  Elec       q    Type
REMARK                         _______ _______ _______ _____ _____    ______ ____
ROOT
ATOM      1  O   HOH     1      20.529  28.066  18.430  0.00  0.00    +0.000 OA
ENDROOT
TORSDOF 0
