REMARK  Name = ../refined-set-2016/2a5b/2a5b_pocket.pdb
REMARK  165 active torsions:
REMARK  status: ('A' for Active; 'I' for Inactive)
REMARK    1  A    between atoms: _1  and  _3
REMARK    2  A    between atoms: _3  and  _4
REMARK    3  A    between atoms: _3  and  _6
REMARK    4  A    between atoms: _6  and  _7
REMARK    5  A    between atoms: _12  and  _14
REMARK    6  A    between atoms: _14  and  _15
REMARK    7  A    between atoms: _14  and  _17
REMARK    8  A    between atoms: _17  and  _18
REMARK    9  A    between atoms: _21  and  _23
REMARK   10  A    between atoms: _23  and  _24
REMARK   11  A    between atoms: _23  and  _26
REMARK   12  A    between atoms: _26  and  _27
REMARK   13  A    between atoms: _30  and  _32
REMARK   14  A    between atoms: _32  and  _33
REMARK   15  A    between atoms: _32  and  _35
REMARK   16  A    between atoms: _35  and  _36
REMARK   17  A    between atoms: _38  and  _40
REMARK   18  A    between atoms: _40  and  _41
REMARK   19  A    between atoms: _40  and  _43
REMARK   20  A    between atoms: _43  and  _44
REMARK   21  A    between atoms: _49  and  _50
REMARK   22  A    between atoms: _52  and  _54
REMARK   23  A    between atoms: _54  and  _55
REMARK   24  A    between atoms: _54  and  _57
REMARK   25  A    between atoms: _57  and  _58
REMARK   26  A    between atoms: _61  and  _63
REMARK   27  A    between atoms: _63  and  _64
REMARK   28  A    between atoms: _63  and  _66
REMARK   29  A    between atoms: _66  and  _67
REMARK   30  A    between atoms: _70  and  _72
REMARK   31  A    between atoms: _72  and  _73
REMARK   32  A    between atoms: _76  and  _78
REMARK   33  A    between atoms: _78  and  _79
REMARK   34  A    between atoms: _78  and  _81
REMARK   35  A    between atoms: _79  and  _80
REMARK   36  A    between atoms: _79  and  _84
REMARK   37  A    between atoms: _80  and  _90
REMARK   38  A    between atoms: _84  and  _86
REMARK   39  A    between atoms: _86  and  _87
REMARK   40  A    between atoms: _86  and  _89
REMARK   41  A    between atoms: _93  and  _95
REMARK   42  A    between atoms: _95  and  _96
REMARK   43  A    between atoms: _95  and  _98
REMARK   44  A    between atoms: _98  and  _99
REMARK   45  A    between atoms: _99  and  _100
REMARK   46  A    between atoms: _100  and  _101
REMARK   47  A    between atoms: _101  and  _102
REMARK   48  A    between atoms: _106  and  _108
REMARK   49  A    between atoms: _108  and  _109
REMARK   50  A    between atoms: _108  and  _111
REMARK   51  A    between atoms: _111  and  _112
REMARK   52  A    between atoms: _114  and  _116
REMARK   53  A    between atoms: _116  and  _117
REMARK   54  A    between atoms: _116  and  _119
REMARK   55  A    between atoms: _122  and  _124
REMARK   56  A    between atoms: _124  and  _125
REMARK   57  A    between atoms: _124  and  _127
REMARK   58  A    between atoms: _127  and  _128
REMARK   59  A    between atoms: _138  and  _140
REMARK   60  A    between atoms: _140  and  _141
REMARK   61  A    between atoms: _140  and  _143
REMARK   62  A    between atoms: _143  and  _144
REMARK   63  A    between atoms: _144  and  _145
REMARK   64  A    between atoms: _145  and  _146
REMARK   65  A    between atoms: _146  and  _147
REMARK   66  A    between atoms: _151  and  _153
REMARK   67  A    between atoms: _153  and  _154
REMARK   68  A    between atoms: _153  and  _156
REMARK   69  A    between atoms: _156  and  _157
REMARK   70  A    between atoms: _163  and  _165
REMARK   71  A    between atoms: _165  and  _166
REMARK   72  A    between atoms: _165  and  _168
REMARK   73  A    between atoms: _168  and  _169
REMARK   74  A    between atoms: _171  and  _173
REMARK   75  A    between atoms: _173  and  _174
REMARK   76  A    between atoms: _173  and  _176
REMARK   77  A    between atoms: _176  and  _177
REMARK   78  A    between atoms: _177  and  _178
REMARK   79  A    between atoms: _181  and  _183
REMARK   80  A    between atoms: _183  and  _184
REMARK   81  A    between atoms: _183  and  _186
REMARK   82  A    between atoms: _186  and  _187
REMARK   83  A    between atoms: _189  and  _191
REMARK   84  A    between atoms: _191  and  _192
REMARK   85  A    between atoms: _191  and  _194
REMARK   86  A    between atoms: _194  and  _195
REMARK   87  A    between atoms: _198  and  _200
REMARK   88  A    between atoms: _200  and  _201
REMARK   89  A    between atoms: _200  and  _203
REMARK   90  A    between atoms: _203  and  _204
REMARK   91  A    between atoms: _207  and  _209
REMARK   92  A    between atoms: _209  and  _210
REMARK   93  A    between atoms: _209  and  _212
REMARK   94  A    between atoms: _215  and  _217
REMARK   95  A    between atoms: _217  and  _218
REMARK   96  A    between atoms: _217  and  _220
REMARK   97  A    between atoms: _220  and  _221
REMARK   98  A    between atoms: _227  and  _229
REMARK   99  A    between atoms: _229  and  _230
REMARK  100  A    between atoms: _229  and  _232
REMARK  101  A    between atoms: _232  and  _233
REMARK  102  A    between atoms: _236  and  _238
REMARK  103  A    between atoms: _238  and  _239
REMARK  104  A    between atoms: _238  and  _241
REMARK  105  A    between atoms: _241  and  _242
REMARK  106  A    between atoms: _252  and  _254
REMARK  107  A    between atoms: _254  and  _255
REMARK  108  A    between atoms: _254  and  _257
REMARK  109  A    between atoms: _257  and  _258
REMARK  110  A    between atoms: _261  and  _263
REMARK  111  A    between atoms: _263  and  _264
REMARK  112  A    between atoms: _263  and  _266
REMARK  113  A    between atoms: _266  and  _267
REMARK  114  A    between atoms: _270  and  _272
REMARK  115  A    between atoms: _272  and  _273
REMARK  116  A    between atoms: _272  and  _275
REMARK  117  A    between atoms: _275  and  _276
REMARK  118  A    between atoms: _276  and  _277
REMARK  119  A    between atoms: _277  and  _278
REMARK  120  A    between atoms: _287  and  _289
REMARK  121  A    between atoms: _289  and  _290
REMARK  122  A    between atoms: _289  and  _292
REMARK  123  A    between atoms: _292  and  _293
REMARK  124  A    between atoms: _295  and  _297
REMARK  125  A    between atoms: _297  and  _298
REMARK  126  A    between atoms: _297  and  _300
REMARK  127  A    between atoms: _300  and  _301
REMARK  128  A    between atoms: _303  and  _305
REMARK  129  A    between atoms: _305  and  _306
REMARK  130  A    between atoms: _305  and  _308
REMARK  131  A    between atoms: _308  and  _309
REMARK  132  A    between atoms: _309  and  _310
REMARK  133  A    between atoms: _310  and  _311
REMARK  134  A    between atoms: _320  and  _322
REMARK  135  A    between atoms: _322  and  _323
REMARK  136  A    between atoms: _322  and  _325
REMARK  137  A    between atoms: _328  and  _330
REMARK  138  A    between atoms: _330  and  _331
REMARK  139  A    between atoms: _333  and  _335
REMARK  140  A    between atoms: _335  and  _336
REMARK  141  A    between atoms: _335  and  _338
REMARK  142  A    between atoms: _338  and  _339
REMARK  143  A    between atoms: _342  and  _344
REMARK  144  A    between atoms: _344  and  _345
REMARK  145  A    between atoms: _344  and  _347
REMARK  146  A    between atoms: _347  and  _348
REMARK  147  A    between atoms: _353  and  _355
REMARK  148  A    between atoms: _355  and  _356
REMARK  149  A    between atoms: _355  and  _358
REMARK  150  A    between atoms: _358  and  _359
REMARK  151  A    between atoms: _365  and  _367
REMARK  152  A    between atoms: _367  and  _368
REMARK  153  A    between atoms: _367  and  _370
REMARK  154  A    between atoms: _370  and  _371
REMARK  155  A    between atoms: _376  and  _378
REMARK  156  A    between atoms: _378  and  _379
REMARK  157  A    between atoms: _378  and  _381
REMARK  158  A    between atoms: _381  and  _382
REMARK  159  A    between atoms: _392  and  _394
REMARK  160  A    between atoms: _394  and  _395
REMARK  161  A    between atoms: _394  and  _397
REMARK  162  A    between atoms: _397  and  _398
REMARK  163  A    between atoms: _398  and  _399
REMARK  164  A    between atoms: _399  and  _400
REMARK  165  A    between atoms: _400  and  _401
REMARK                            x       y       z     vdW  Elec       q    Type
REMARK                         _______ _______ _______ _____ _____    ______ ____
ROOT
ATOM      1  CA  ASP A   2      -7.130  22.842   2.802  0.00  0.00    +0.160 C 
ENDROOT
BRANCH   1   3
ATOM      2  C   ASN A   1      -5.313  21.193   2.780  0.00  0.00    +0.239 C 
ATOM      3  N   ASP A   2      -5.826  22.317   3.249  0.00  0.00    -0.297 N 
ATOM      4  H   ASP A   2      -5.289  22.852   3.961  0.00  0.00    +0.150 HD
ATOM      5  O   ASN A   1      -5.877  20.484   1.913  0.00  0.00    -0.274 OA
BRANCH   2   6
ATOM      6  CA  ASN A   1      -3.979  20.833   3.394  0.00  0.00    +0.154 C 
BRANCH   6   7
ATOM      7  N   ASN A   1      -3.360  19.626   2.947  0.00  0.00    -0.238 NA
ATOM      8  H   ASN A   1      -3.310  19.406   1.932  0.00  0.00    +0.142 HD
ENDBRANCH   6   7
BRANCH   6   9
ATOM      9  CB  ASN A   1      -2.990  21.994   3.312  0.00  0.00    +0.111 C 
BRANCH   9  10
ATOM     10  CG  ASN A   1      -2.806  22.543   1.909  0.00  0.00    +0.221 C 
ATOM     11  ND2 ASN A   1      -1.716  23.273   1.743  0.00  0.00    -0.329 N 
ATOM     12 HD21 ASN A   1      -1.062  23.420   2.538  0.00  0.00    +0.145 HD
ATOM     13 HD22 ASN A   1      -1.512  23.700   0.817  0.00  0.00    +0.145 HD
ATOM     14  OD1 ASN A   1      -3.624  22.334   0.991  0.00  0.00    -0.275 OA
ENDBRANCH   9  10
ENDBRANCH   6   9
ENDBRANCH   2   6
ENDBRANCH   1   3
BRANCH   1  15
ATOM     15  C   ASP A   2      -7.182  23.239   1.290  0.00  0.00    +0.241 C 
ATOM     16  O   ASP A   2      -8.260  23.328   0.721  0.00  0.00    -0.273 OA
ATOM     17  N   LEU A   3      -6.031  23.462   0.652  0.00  0.00    -0.298 N 
ATOM     18  H   LEU A   3      -5.145  23.468   1.196  0.00  0.00    +0.150 HD
BRANCH  17  19
ATOM     19  CA  LEU A   3      -5.980  23.703  -0.821  0.00  0.00    +0.137 C 
BRANCH  19  20
ATOM     20  C   LEU A   3      -5.613  22.418  -1.602  0.00  0.00    +0.227 C 
ATOM     21  O   LEU A   3      -5.578  22.424  -2.818  0.00  0.00    -0.286 OA
ENDBRANCH  19  20
BRANCH  19  22
ATOM     22  CB  LEU A   3      -4.970  24.858  -1.184  0.00  0.00    +0.028 C 
BRANCH  22  23
ATOM     23  CG  LEU A   3      -4.928  26.193  -0.357  0.00  0.00    +0.002 C 
ATOM     24  CD2 LEU A   3      -3.599  27.017  -0.492  0.00  0.00    +0.000 C 
ATOM     25  CD1 LEU A   3      -6.206  27.043  -0.597  0.00  0.00    +0.000 C 
ENDBRANCH  22  23
ENDBRANCH  19  22
ENDBRANCH  17  19
ENDBRANCH   1  15
BRANCH   1  26
ATOM     26  CB  ASP A   2      -7.507  24.024   3.699  0.00  0.00    +0.143 C 
BRANCH  26  27
ATOM     27  CG  ASP A   2      -6.365  25.051   3.816  0.00  0.00    +0.367 C 
ATOM     28  OD2 ASP A   2      -5.267  24.753   4.379  0.00  0.00    -0.246 OA
ATOM     29  OD1 ASP A   2      -6.578  26.162   3.314  0.00  0.00    -0.246 OA
ENDBRANCH  26  27
ENDBRANCH   1  26
TORSDOF 12
REMARK  Name = ../refined-set-2016/2a5b/2a5b_pocket.pdb
REMARK  165 active torsions:
REMARK  status: ('A' for Active; 'I' for Inactive)
REMARK    1  A    between atoms: _1  and  _3
REMARK    2  A    between atoms: _3  and  _4
REMARK    3  A    between atoms: _3  and  _6
REMARK    4  A    between atoms: _6  and  _7
REMARK    5  A    between atoms: _12  and  _14
REMARK    6  A    between atoms: _14  and  _15
REMARK    7  A    between atoms: _14  and  _17
REMARK    8  A    between atoms: _17  and  _18
REMARK    9  A    between atoms: _21  and  _23
REMARK   10  A    between atoms: _23  and  _24
REMARK   11  A    between atoms: _23  and  _26
REMARK   12  A    between atoms: _26  and  _27
REMARK   13  A    between atoms: _30  and  _32
REMARK   14  A    between atoms: _32  and  _33
REMARK   15  A    between atoms: _32  and  _35
REMARK   16  A    between atoms: _35  and  _36
REMARK   17  A    between atoms: _38  and  _40
REMARK   18  A    between atoms: _40  and  _41
REMARK   19  A    between atoms: _40  and  _43
REMARK   20  A    between atoms: _43  and  _44
REMARK   21  A    between atoms: _49  and  _50
REMARK   22  A    between atoms: _52  and  _54
REMARK   23  A    between atoms: _54  and  _55
REMARK   24  A    between atoms: _54  and  _57
REMARK   25  A    between atoms: _57  and  _58
REMARK   26  A    between atoms: _61  and  _63
REMARK   27  A    between atoms: _63  and  _64
REMARK   28  A    between atoms: _63  and  _66
REMARK   29  A    between atoms: _66  and  _67
REMARK   30  A    between atoms: _70  and  _72
REMARK   31  A    between atoms: _72  and  _73
REMARK   32  A    between atoms: _76  and  _78
REMARK   33  A    between atoms: _78  and  _79
REMARK   34  A    between atoms: _78  and  _81
REMARK   35  A    between atoms: _79  and  _80
REMARK   36  A    between atoms: _79  and  _84
REMARK   37  A    between atoms: _80  and  _90
REMARK   38  A    between atoms: _84  and  _86
REMARK   39  A    between atoms: _86  and  _87
REMARK   40  A    between atoms: _86  and  _89
REMARK   41  A    between atoms: _93  and  _95
REMARK   42  A    between atoms: _95  and  _96
REMARK   43  A    between atoms: _95  and  _98
REMARK   44  A    between atoms: _98  and  _99
REMARK   45  A    between atoms: _99  and  _100
REMARK   46  A    between atoms: _100  and  _101
REMARK   47  A    between atoms: _101  and  _102
REMARK   48  A    between atoms: _106  and  _108
REMARK   49  A    between atoms: _108  and  _109
REMARK   50  A    between atoms: _108  and  _111
REMARK   51  A    between atoms: _111  and  _112
REMARK   52  A    between atoms: _114  and  _116
REMARK   53  A    between atoms: _116  and  _117
REMARK   54  A    between atoms: _116  and  _119
REMARK   55  A    between atoms: _122  and  _124
REMARK   56  A    between atoms: _124  and  _125
REMARK   57  A    between atoms: _124  and  _127
REMARK   58  A    between atoms: _127  and  _128
REMARK   59  A    between atoms: _138  and  _140
REMARK   60  A    between atoms: _140  and  _141
REMARK   61  A    between atoms: _140  and  _143
REMARK   62  A    between atoms: _143  and  _144
REMARK   63  A    between atoms: _144  and  _145
REMARK   64  A    between atoms: _145  and  _146
REMARK   65  A    between atoms: _146  and  _147
REMARK   66  A    between atoms: _151  and  _153
REMARK   67  A    between atoms: _153  and  _154
REMARK   68  A    between atoms: _153  and  _156
REMARK   69  A    between atoms: _156  and  _157
REMARK   70  A    between atoms: _163  and  _165
REMARK   71  A    between atoms: _165  and  _166
REMARK   72  A    between atoms: _165  and  _168
REMARK   73  A    between atoms: _168  and  _169
REMARK   74  A    between atoms: _171  and  _173
REMARK   75  A    between atoms: _173  and  _174
REMARK   76  A    between atoms: _173  and  _176
REMARK   77  A    between atoms: _176  and  _177
REMARK   78  A    between atoms: _177  and  _178
REMARK   79  A    between atoms: _181  and  _183
REMARK   80  A    between atoms: _183  and  _184
REMARK   81  A    between atoms: _183  and  _186
REMARK   82  A    between atoms: _186  and  _187
REMARK   83  A    between atoms: _189  and  _191
REMARK   84  A    between atoms: _191  and  _192
REMARK   85  A    between atoms: _191  and  _194
REMARK   86  A    between atoms: _194  and  _195
REMARK   87  A    between atoms: _198  and  _200
REMARK   88  A    between atoms: _200  and  _201
REMARK   89  A    between atoms: _200  and  _203
REMARK   90  A    between atoms: _203  and  _204
REMARK   91  A    between atoms: _207  and  _209
REMARK   92  A    between atoms: _209  and  _210
REMARK   93  A    between atoms: _209  and  _212
REMARK   94  A    between atoms: _215  and  _217
REMARK   95  A    between atoms: _217  and  _218
REMARK   96  A    between atoms: _217  and  _220
REMARK   97  A    between atoms: _220  and  _221
REMARK   98  A    between atoms: _227  and  _229
REMARK   99  A    between atoms: _229  and  _230
REMARK  100  A    between atoms: _229  and  _232
REMARK  101  A    between atoms: _232  and  _233
REMARK  102  A    between atoms: _236  and  _238
REMARK  103  A    between atoms: _238  and  _239
REMARK  104  A    between atoms: _238  and  _241
REMARK  105  A    between atoms: _241  and  _242
REMARK  106  A    between atoms: _252  and  _254
REMARK  107  A    between atoms: _254  and  _255
REMARK  108  A    between atoms: _254  and  _257
REMARK  109  A    between atoms: _257  and  _258
REMARK  110  A    between atoms: _261  and  _263
REMARK  111  A    between atoms: _263  and  _264
REMARK  112  A    between atoms: _263  and  _266
REMARK  113  A    between atoms: _266  and  _267
REMARK  114  A    between atoms: _270  and  _272
REMARK  115  A    between atoms: _272  and  _273
REMARK  116  A    between atoms: _272  and  _275
REMARK  117  A    between atoms: _275  and  _276
REMARK  118  A    between atoms: _276  and  _277
REMARK  119  A    between atoms: _277  and  _278
REMARK  120  A    between atoms: _287  and  _289
REMARK  121  A    between atoms: _289  and  _290
REMARK  122  A    between atoms: _289  and  _292
REMARK  123  A    between atoms: _292  and  _293
REMARK  124  A    between atoms: _295  and  _297
REMARK  125  A    between atoms: _297  and  _298
REMARK  126  A    between atoms: _297  and  _300
REMARK  127  A    between atoms: _300  and  _301
REMARK  128  A    between atoms: _303  and  _305
REMARK  129  A    between atoms: _305  and  _306
REMARK  130  A    between atoms: _305  and  _308
REMARK  131  A    between atoms: _308  and  _309
REMARK  132  A    between atoms: _309  and  _310
REMARK  133  A    between atoms: _310  and  _311
REMARK  134  A    between atoms: _320  and  _322
REMARK  135  A    between atoms: _322  and  _323
REMARK  136  A    between atoms: _322  and  _325
REMARK  137  A    between atoms: _328  and  _330
REMARK  138  A    between atoms: _330  and  _331
REMARK  139  A    between atoms: _333  and  _335
REMARK  140  A    between atoms: _335  and  _336
REMARK  141  A    between atoms: _335  and  _338
REMARK  142  A    between atoms: _338  and  _339
REMARK  143  A    between atoms: _342  and  _344
REMARK  144  A    between atoms: _344  and  _345
REMARK  145  A    between atoms: _344  and  _347
REMARK  146  A    between atoms: _347  and  _348
REMARK  147  A    between atoms: _353  and  _355
REMARK  148  A    between atoms: _355  and  _356
REMARK  149  A    between atoms: _355  and  _358
REMARK  150  A    between atoms: _358  and  _359
REMARK  151  A    between atoms: _365  and  _367
REMARK  152  A    between atoms: _367  and  _368
REMARK  153  A    between atoms: _367  and  _370
REMARK  154  A    between atoms: _370  and  _371
REMARK  155  A    between atoms: _376  and  _378
REMARK  156  A    between atoms: _378  and  _379
REMARK  157  A    between atoms: _378  and  _381
REMARK  158  A    between atoms: _381  and  _382
REMARK  159  A    between atoms: _392  and  _394
REMARK  160  A    between atoms: _394  and  _395
REMARK  161  A    between atoms: _394  and  _397
REMARK  162  A    between atoms: _397  and  _398
REMARK  163  A    between atoms: _398  and  _399
REMARK  164  A    between atoms: _399  and  _400
REMARK  165  A    between atoms: _400  and  _401
REMARK                            x       y       z     vdW  Elec       q    Type
REMARK                         _______ _______ _______ _____ _____    ______ ____
ROOT
ATOM      1  CA  SER A   1      -1.156  20.598  -1.498  0.00  0.00    +0.163 C 
ENDROOT
BRANCH   1   2
ATOM      2  N   SER A   1      -2.600  20.816  -1.476  0.00  0.00    -0.237 NA
ATOM      3  H   SER A   1      -2.975  21.702  -1.082  0.00  0.00    +0.142 HD
ENDBRANCH   1   2
BRANCH   1   4
ATOM      4  C   SER A   1      -0.766  19.537  -0.455  0.00  0.00    +0.227 C 
ATOM      5  O   SER A   1      -1.388  19.436   0.611  0.00  0.00    -0.287 OA
ENDBRANCH   1   4
BRANCH   1   6
ATOM      6  CB  SER A   1      -0.384  21.890  -1.183  0.00  0.00    +0.162 C 
BRANCH   6   7
ATOM      7  OG  SER A   1      -0.725  22.934  -2.073  0.00  0.00    -0.380 OA
ATOM      8  H   SER A   1      -0.210  23.747  -1.840  0.00  0.00    +0.211 HD
ENDBRANCH   6   7
ENDBRANCH   1   6
TORSDOF 4
REMARK  Name = ../refined-set-2016/2a5b/2a5b_pocket.pdb
REMARK  165 active torsions:
REMARK  status: ('A' for Active; 'I' for Inactive)
REMARK    1  A    between atoms: _1  and  _3
REMARK    2  A    between atoms: _3  and  _4
REMARK    3  A    between atoms: _3  and  _6
REMARK    4  A    between atoms: _6  and  _7
REMARK    5  A    between atoms: _12  and  _14
REMARK    6  A    between atoms: _14  and  _15
REMARK    7  A    between atoms: _14  and  _17
REMARK    8  A    between atoms: _17  and  _18
REMARK    9  A    between atoms: _21  and  _23
REMARK   10  A    between atoms: _23  and  _24
REMARK   11  A    between atoms: _23  and  _26
REMARK   12  A    between atoms: _26  and  _27
REMARK   13  A    between atoms: _30  and  _32
REMARK   14  A    between atoms: _32  and  _33
REMARK   15  A    between atoms: _32  and  _35
REMARK   16  A    between atoms: _35  and  _36
REMARK   17  A    between atoms: _38  and  _40
REMARK   18  A    between atoms: _40  and  _41
REMARK   19  A    between atoms: _40  and  _43
REMARK   20  A    between atoms: _43  and  _44
REMARK   21  A    between atoms: _49  and  _50
REMARK   22  A    between atoms: _52  and  _54
REMARK   23  A    between atoms: _54  and  _55
REMARK   24  A    between atoms: _54  and  _57
REMARK   25  A    between atoms: _57  and  _58
REMARK   26  A    between atoms: _61  and  _63
REMARK   27  A    between atoms: _63  and  _64
REMARK   28  A    between atoms: _63  and  _66
REMARK   29  A    between atoms: _66  and  _67
REMARK   30  A    between atoms: _70  and  _72
REMARK   31  A    between atoms: _72  and  _73
REMARK   32  A    between atoms: _76  and  _78
REMARK   33  A    between atoms: _78  and  _79
REMARK   34  A    between atoms: _78  and  _81
REMARK   35  A    between atoms: _79  and  _80
REMARK   36  A    between atoms: _79  and  _84
REMARK   37  A    between atoms: _80  and  _90
REMARK   38  A    between atoms: _84  and  _86
REMARK   39  A    between atoms: _86  and  _87
REMARK   40  A    between atoms: _86  and  _89
REMARK   41  A    between atoms: _93  and  _95
REMARK   42  A    between atoms: _95  and  _96
REMARK   43  A    between atoms: _95  and  _98
REMARK   44  A    between atoms: _98  and  _99
REMARK   45  A    between atoms: _99  and  _100
REMARK   46  A    between atoms: _100  and  _101
REMARK   47  A    between atoms: _101  and  _102
REMARK   48  A    between atoms: _106  and  _108
REMARK   49  A    between atoms: _108  and  _109
REMARK   50  A    between atoms: _108  and  _111
REMARK   51  A    between atoms: _111  and  _112
REMARK   52  A    between atoms: _114  and  _116
REMARK   53  A    between atoms: _116  and  _117
REMARK   54  A    between atoms: _116  and  _119
REMARK   55  A    between atoms: _122  and  _124
REMARK   56  A    between atoms: _124  and  _125
REMARK   57  A    between atoms: _124  and  _127
REMARK   58  A    between atoms: _127  and  _128
REMARK   59  A    between atoms: _138  and  _140
REMARK   60  A    between atoms: _140  and  _141
REMARK   61  A    between atoms: _140  and  _143
REMARK   62  A    between atoms: _143  and  _144
REMARK   63  A    between atoms: _144  and  _145
REMARK   64  A    between atoms: _145  and  _146
REMARK   65  A    between atoms: _146  and  _147
REMARK   66  A    between atoms: _151  and  _153
REMARK   67  A    between atoms: _153  and  _154
REMARK   68  A    between atoms: _153  and  _156
REMARK   69  A    between atoms: _156  and  _157
REMARK   70  A    between atoms: _163  and  _165
REMARK   71  A    between atoms: _165  and  _166
REMARK   72  A    between atoms: _165  and  _168
REMARK   73  A    between atoms: _168  and  _169
REMARK   74  A    between atoms: _171  and  _173
REMARK   75  A    between atoms: _173  and  _174
REMARK   76  A    between atoms: _173  and  _176
REMARK   77  A    between atoms: _176  and  _177
REMARK   78  A    between atoms: _177  and  _178
REMARK   79  A    between atoms: _181  and  _183
REMARK   80  A    between atoms: _183  and  _184
REMARK   81  A    between atoms: _183  and  _186
REMARK   82  A    between atoms: _186  and  _187
REMARK   83  A    between atoms: _189  and  _191
REMARK   84  A    between atoms: _191  and  _192
REMARK   85  A    between atoms: _191  and  _194
REMARK   86  A    between atoms: _194  and  _195
REMARK   87  A    between atoms: _198  and  _200
REMARK   88  A    between atoms: _200  and  _201
REMARK   89  A    between atoms: _200  and  _203
REMARK   90  A    between atoms: _203  and  _204
REMARK   91  A    between atoms: _207  and  _209
REMARK   92  A    between atoms: _209  and  _210
REMARK   93  A    between atoms: _209  and  _212
REMARK   94  A    between atoms: _215  and  _217
REMARK   95  A    between atoms: _217  and  _218
REMARK   96  A    between atoms: _217  and  _220
REMARK   97  A    between atoms: _220  and  _221
REMARK   98  A    between atoms: _227  and  _229
REMARK   99  A    between atoms: _229  and  _230
REMARK  100  A    between atoms: _229  and  _232
REMARK  101  A    between atoms: _232  and  _233
REMARK  102  A    between atoms: _236  and  _238
REMARK  103  A    between atoms: _238  and  _239
REMARK  104  A    between atoms: _238  and  _241
REMARK  105  A    between atoms: _241  and  _242
REMARK  106  A    between atoms: _252  and  _254
REMARK  107  A    between atoms: _254  and  _255
REMARK  108  A    between atoms: _254  and  _257
REMARK  109  A    between atoms: _257  and  _258
REMARK  110  A    between atoms: _261  and  _263
REMARK  111  A    between atoms: _263  and  _264
REMARK  112  A    between atoms: _263  and  _266
REMARK  113  A    between atoms: _266  and  _267
REMARK  114  A    between atoms: _270  and  _272
REMARK  115  A    between atoms: _272  and  _273
REMARK  116  A    between atoms: _272  and  _275
REMARK  117  A    between atoms: _275  and  _276
REMARK  118  A    between atoms: _276  and  _277
REMARK  119  A    between atoms: _277  and  _278
REMARK  120  A    between atoms: _287  and  _289
REMARK  121  A    between atoms: _289  and  _290
REMARK  122  A    between atoms: _289  and  _292
REMARK  123  A    between atoms: _292  and  _293
REMARK  124  A    between atoms: _295  and  _297
REMARK  125  A    between atoms: _297  and  _298
REMARK  126  A    between atoms: _297  and  _300
REMARK  127  A    between atoms: _300  and  _301
REMARK  128  A    between atoms: _303  and  _305
REMARK  129  A    between atoms: _305  and  _306
REMARK  130  A    between atoms: _305  and  _308
REMARK  131  A    between atoms: _308  and  _309
REMARK  132  A    between atoms: _309  and  _310
REMARK  133  A    between atoms: _310  and  _311
REMARK  134  A    between atoms: _320  and  _322
REMARK  135  A    between atoms: _322  and  _323
REMARK  136  A    between atoms: _322  and  _325
REMARK  137  A    between atoms: _328  and  _330
REMARK  138  A    between atoms: _330  and  _331
REMARK  139  A    between atoms: _333  and  _335
REMARK  140  A    between atoms: _335  and  _336
REMARK  141  A    between atoms: _335  and  _338
REMARK  142  A    between atoms: _338  and  _339
REMARK  143  A    between atoms: _342  and  _344
REMARK  144  A    between atoms: _344  and  _345
REMARK  145  A    between atoms: _344  and  _347
REMARK  146  A    between atoms: _347  and  _348
REMARK  147  A    between atoms: _353  and  _355
REMARK  148  A    between atoms: _355  and  _356
REMARK  149  A    between atoms: _355  and  _358
REMARK  150  A    between atoms: _358  and  _359
REMARK  151  A    between atoms: _365  and  _367
REMARK  152  A    between atoms: _367  and  _368
REMARK  153  A    between atoms: _367  and  _370
REMARK  154  A    between atoms: _370  and  _371
REMARK  155  A    between atoms: _376  and  _378
REMARK  156  A    between atoms: _378  and  _379
REMARK  157  A    between atoms: _378  and  _381
REMARK  158  A    between atoms: _381  and  _382
REMARK  159  A    between atoms: _392  and  _394
REMARK  160  A    between atoms: _394  and  _395
REMARK  161  A    between atoms: _394  and  _397
REMARK  162  A    between atoms: _397  and  _398
REMARK  163  A    between atoms: _398  and  _399
REMARK  164  A    between atoms: _399  and  _400
REMARK  165  A    between atoms: _400  and  _401
REMARK                            x       y       z     vdW  Elec       q    Type
REMARK                         _______ _______ _______ _____ _____    ______ ____
ROOT
ATOM      1  C   UNL     1       1.493  21.787  -4.849  0.00  0.00    +0.176 C 
ENDROOT
BRANCH   1   4
ATOM      2  C   UNL     1       2.642  20.089  -3.611  0.00  0.00    +0.243 C 
ATOM      3  O   UNL     1       1.792  20.045  -2.722  0.00  0.00    -0.273 OA
ATOM      4  N   UNL     1       2.453  20.727  -4.752  0.00  0.00    -0.295 N 
ATOM      5  H   UNL     1       3.007  20.457  -5.590  0.00  0.00    +0.150 HD
BRANCH   2   6
ATOM      6  C   UNL     1       3.950  19.342  -3.483  0.00  0.00    +0.176 C 
BRANCH   6   8
ATOM      7  C   UNL     1       5.688  20.288  -2.067  0.00  0.00    +0.239 C 
ATOM      8  N   UNL     1       4.518  19.676  -2.207  0.00  0.00    -0.295 N 
ATOM      9  H   UNL     1       3.986  19.426  -1.349  0.00  0.00    +0.150 HD
ATOM     10  O   UNL     1       6.349  20.706  -2.997  0.00  0.00    -0.274 OA
BRANCH   7  11
ATOM     11  C   UNL     1       6.199  20.433  -0.656  0.00  0.00    +0.149 C 
BRANCH  11  12
ATOM     12  N   UNL     1       7.494  19.759  -0.586  0.00  0.00    -0.238 NA
ATOM     13  H   UNL     1       8.210  19.971  -1.310  0.00  0.00    +0.142 HD
ENDBRANCH  11  12
BRANCH  11  14
ATOM     14  C   UNL     1       6.346  21.903  -0.280  0.00  0.00    +0.053 C 
BRANCH  14  15
ATOM     15  C   UNL     1       5.058  22.546   0.170  0.00  0.00    -0.020 A 
ATOM     16  C   UNL     1       4.751  22.657   1.534  0.00  0.00    -0.001 A 
ATOM     17  C   UNL     1       3.597  23.232   1.945  0.00  0.00    +0.036 A 
ATOM     18  C   UNL     1       2.696  23.710   1.008  0.00  0.00    +0.134 A 
ATOM     19  C   UNL     1       2.955  23.616  -0.341  0.00  0.00    +0.036 A 
ATOM     20  C   UNL     1       4.148  23.045  -0.755  0.00  0.00    -0.001 A 
BRANCH  18  21
ATOM     21  O   UNL     1       1.531  24.285   1.433  0.00  0.00    -0.506 OA
ATOM     22  H   UNL     1       1.001  24.572   0.648  0.00  0.00    +0.292 HD
ENDBRANCH  18  21
ENDBRANCH  14  15
ENDBRANCH  11  14
ENDBRANCH   7  11
ENDBRANCH   6   8
BRANCH   6  23
ATOM     23  C   UNL     1       3.647  17.838  -3.588  0.00  0.00    +0.137 C 
ATOM     24  C   UNL     1       3.425  17.469  -5.032  0.00  0.00    +0.034 C 
BRANCH  23  25
ATOM     25  O   UNL     1       4.713  17.058  -2.986  0.00  0.00    -0.382 OA
ATOM     26  H   UNL     1       4.500  16.094  -3.064  0.00  0.00    +0.210 HD
ENDBRANCH  23  25
ENDBRANCH   6  23
ENDBRANCH   2   6
ENDBRANCH   1   4
BRANCH   1  27
ATOM     27  C   UNL     1       0.655  21.597  -6.103  0.00  0.00    +0.243 C 
ATOM     28  N   UNL     1      -0.582  22.083  -6.035  0.00  0.00    -0.297 N 
ATOM     29  H   UNL     1      -0.868  22.610  -5.186  0.00  0.00    +0.150 HD
ATOM     30  O   UNL     1       1.115  20.976  -7.106  0.00  0.00    -0.273 OA
BRANCH  28  31
ATOM     31  C   UNL     1      -1.547  21.902  -7.107  0.00  0.00    +0.149 C 
ATOM     32  C   UNL     1      -2.923  21.591  -6.535  0.00  0.00    +0.031 C 
BRANCH  31  33
ATOM     33  C   UNL     1      -1.597  23.125  -8.010  0.00  0.00    +0.240 C 
ATOM     34  O   UNL     1      -2.238  24.129  -7.686  0.00  0.00    -0.273 OA
ATOM     35  N   UNL     1      -0.901  23.037  -9.140  0.00  0.00    -0.301 N 
ATOM     36  H   UNL     1      -0.313  22.196  -9.309  0.00  0.00    +0.150 HD
BRANCH  35  37
ATOM     37  C   UNL     1      -0.941  24.089 -10.147  0.00  0.00    +0.117 C 
BRANCH  37  38
ATOM     38  C   UNL     1       0.478  24.472 -10.657  0.00  0.00    +0.022 C 
ATOM     39  C   UNL     1       1.447  24.660  -9.493  0.00  0.00    +0.002 C 
ATOM     40  C   UNL     1       0.424  25.745 -11.509  0.00  0.00    +0.002 C 
ENDBRANCH  37  38
BRANCH  37  41
ATOM     41  C   UNL     1      -1.834  23.636 -11.305  0.00  0.00    +0.227 C 
BRANCH  41  42
ATOM     42  N   UNL     1      -3.136  23.864 -11.159  0.00  0.00    -0.266 NA
ATOM     43  H   UNL     1      -3.479  24.293 -10.276  0.00  0.00    +0.126 HD
BRANCH  42  44
ATOM     44  CA  UNL     1      -4.097  23.528 -12.207  0.00  0.00    +0.122 C 
BRANCH  44  45
ATOM     45  C   UNL     1      -3.459  22.664 -13.321  0.00  0.00    +0.024 C 
ATOM     46  C   UNL     1      -4.094  22.980 -14.670  0.00  0.00    +0.002 C 
ENDBRANCH  44  45
BRANCH  44  47
ATOM     47  C   UNL     1      -5.338  22.816 -11.657  0.00  0.00    +0.223 C 
ATOM     48  O   UNL     1      -5.725  23.014 -10.502  0.00  0.00    -0.287 OA
ENDBRANCH  44  47
ENDBRANCH  42  44
ENDBRANCH  41  42
BRANCH  41  49
ATOM     49  O   UNL     1      -1.361  23.073 -12.296  0.00  0.00    -0.208 OA
BRANCH  49  50
ATOM     50  O   UNL     1      -2.048  22.909 -13.388  0.00  0.00    -0.248 OA
ATOM     51  H   UNL     1      -1.651  22.351 -14.103  0.00  0.00    +0.253 HD
ENDBRANCH  49  50
ENDBRANCH  41  49
ENDBRANCH  37  41
ENDBRANCH  35  37
ENDBRANCH  31  33
ENDBRANCH  28  31
ENDBRANCH   1  27
BRANCH   1  52
ATOM     52  C   UNL     1       2.228  23.166  -4.739  0.00  0.00    +0.137 C 
ATOM     53  C   UNL     1       2.731  23.657  -6.087  0.00  0.00    +0.034 C 
BRANCH  52  54
ATOM     54  O   UNL     1       1.396  24.141  -4.081  0.00  0.00    -0.382 OA
ATOM     55  H   UNL     1       1.175  23.824  -3.170  0.00  0.00    +0.210 HD
ENDBRANCH  52  54
ENDBRANCH   1  52
TORSDOF 24
REMARK  Name = ../refined-set-2016/2a5b/2a5b_pocket.pdb
REMARK  165 active torsions:
REMARK  status: ('A' for Active; 'I' for Inactive)
REMARK    1  A    between atoms: _1  and  _3
REMARK    2  A    between atoms: _3  and  _4
REMARK    3  A    between atoms: _3  and  _6
REMARK    4  A    between atoms: _6  and  _7
REMARK    5  A    between atoms: _12  and  _14
REMARK    6  A    between atoms: _14  and  _15
REMARK    7  A    between atoms: _14  and  _17
REMARK    8  A    between atoms: _17  and  _18
REMARK    9  A    between atoms: _21  and  _23
REMARK   10  A    between atoms: _23  and  _24
REMARK   11  A    between atoms: _23  and  _26
REMARK   12  A    between atoms: _26  and  _27
REMARK   13  A    between atoms: _30  and  _32
REMARK   14  A    between atoms: _32  and  _33
REMARK   15  A    between atoms: _32  and  _35
REMARK   16  A    between atoms: _35  and  _36
REMARK   17  A    between atoms: _38  and  _40
REMARK   18  A    between atoms: _40  and  _41
REMARK   19  A    between atoms: _40  and  _43
REMARK   20  A    between atoms: _43  and  _44
REMARK   21  A    between atoms: _49  and  _50
REMARK   22  A    between atoms: _52  and  _54
REMARK   23  A    between atoms: _54  and  _55
REMARK   24  A    between atoms: _54  and  _57
REMARK   25  A    between atoms: _57  and  _58
REMARK   26  A    between atoms: _61  and  _63
REMARK   27  A    between atoms: _63  and  _64
REMARK   28  A    between atoms: _63  and  _66
REMARK   29  A    between atoms: _66  and  _67
REMARK   30  A    between atoms: _70  and  _72
REMARK   31  A    between atoms: _72  and  _73
REMARK   32  A    between atoms: _76  and  _78
REMARK   33  A    between atoms: _78  and  _79
REMARK   34  A    between atoms: _78  and  _81
REMARK   35  A    between atoms: _79  and  _80
REMARK   36  A    between atoms: _79  and  _84
REMARK   37  A    between atoms: _80  and  _90
REMARK   38  A    between atoms: _84  and  _86
REMARK   39  A    between atoms: _86  and  _87
REMARK   40  A    between atoms: _86  and  _89
REMARK   41  A    between atoms: _93  and  _95
REMARK   42  A    between atoms: _95  and  _96
REMARK   43  A    between atoms: _95  and  _98
REMARK   44  A    between atoms: _98  and  _99
REMARK   45  A    between atoms: _99  and  _100
REMARK   46  A    between atoms: _100  and  _101
REMARK   47  A    between atoms: _101  and  _102
REMARK   48  A    between atoms: _106  and  _108
REMARK   49  A    between atoms: _108  and  _109
REMARK   50  A    between atoms: _108  and  _111
REMARK   51  A    between atoms: _111  and  _112
REMARK   52  A    between atoms: _114  and  _116
REMARK   53  A    between atoms: _116  and  _117
REMARK   54  A    between atoms: _116  and  _119
REMARK   55  A    between atoms: _122  and  _124
REMARK   56  A    between atoms: _124  and  _125
REMARK   57  A    between atoms: _124  and  _127
REMARK   58  A    between atoms: _127  and  _128
REMARK   59  A    between atoms: _138  and  _140
REMARK   60  A    between atoms: _140  and  _141
REMARK   61  A    between atoms: _140  and  _143
REMARK   62  A    between atoms: _143  and  _144
REMARK   63  A    between atoms: _144  and  _145
REMARK   64  A    between atoms: _145  and  _146
REMARK   65  A    between atoms: _146  and  _147
REMARK   66  A    between atoms: _151  and  _153
REMARK   67  A    between atoms: _153  and  _154
REMARK   68  A    between atoms: _153  and  _156
REMARK   69  A    between atoms: _156  and  _157
REMARK   70  A    between atoms: _163  and  _165
REMARK   71  A    between atoms: _165  and  _166
REMARK   72  A    between atoms: _165  and  _168
REMARK   73  A    between atoms: _168  and  _169
REMARK   74  A    between atoms: _171  and  _173
REMARK   75  A    between atoms: _173  and  _174
REMARK   76  A    between atoms: _173  and  _176
REMARK   77  A    between atoms: _176  and  _177
REMARK   78  A    between atoms: _177  and  _178
REMARK   79  A    between atoms: _181  and  _183
REMARK   80  A    between atoms: _183  and  _184
REMARK   81  A    between atoms: _183  and  _186
REMARK   82  A    between atoms: _186  and  _187
REMARK   83  A    between atoms: _189  and  _191
REMARK   84  A    between atoms: _191  and  _192
REMARK   85  A    between atoms: _191  and  _194
REMARK   86  A    between atoms: _194  and  _195
REMARK   87  A    between atoms: _198  and  _200
REMARK   88  A    between atoms: _200  and  _201
REMARK   89  A    between atoms: _200  and  _203
REMARK   90  A    between atoms: _203  and  _204
REMARK   91  A    between atoms: _207  and  _209
REMARK   92  A    between atoms: _209  and  _210
REMARK   93  A    between atoms: _209  and  _212
REMARK   94  A    between atoms: _215  and  _217
REMARK   95  A    between atoms: _217  and  _218
REMARK   96  A    between atoms: _217  and  _220
REMARK   97  A    between atoms: _220  and  _221
REMARK   98  A    between atoms: _227  and  _229
REMARK   99  A    between atoms: _229  and  _230
REMARK  100  A    between atoms: _229  and  _232
REMARK  101  A    between atoms: _232  and  _233
REMARK  102  A    between atoms: _236  and  _238
REMARK  103  A    between atoms: _238  and  _239
REMARK  104  A    between atoms: _238  and  _241
REMARK  105  A    between atoms: _241  and  _242
REMARK  106  A    between atoms: _252  and  _254
REMARK  107  A    between atoms: _254  and  _255
REMARK  108  A    between atoms: _254  and  _257
REMARK  109  A    between atoms: _257  and  _258
REMARK  110  A    between atoms: _261  and  _263
REMARK  111  A    between atoms: _263  and  _264
REMARK  112  A    between atoms: _263  and  _266
REMARK  113  A    between atoms: _266  and  _267
REMARK  114  A    between atoms: _270  and  _272
REMARK  115  A    between atoms: _272  and  _273
REMARK  116  A    between atoms: _272  and  _275
REMARK  117  A    between atoms: _275  and  _276
REMARK  118  A    between atoms: _276  and  _277
REMARK  119  A    between atoms: _277  and  _278
REMARK  120  A    between atoms: _287  and  _289
REMARK  121  A    between atoms: _289  and  _290
REMARK  122  A    between atoms: _289  and  _292
REMARK  123  A    between atoms: _292  and  _293
REMARK  124  A    between atoms: _295  and  _297
REMARK  125  A    between atoms: _297  and  _298
REMARK  126  A    between atoms: _297  and  _300
REMARK  127  A    between atoms: _300  and  _301
REMARK  128  A    between atoms: _303  and  _305
REMARK  129  A    between atoms: _305  and  _306
REMARK  130  A    between atoms: _305  and  _308
REMARK  131  A    between atoms: _308  and  _309
REMARK  132  A    between atoms: _309  and  _310
REMARK  133  A    between atoms: _310  and  _311
REMARK  134  A    between atoms: _320  and  _322
REMARK  135  A    between atoms: _322  and  _323
REMARK  136  A    between atoms: _322  and  _325
REMARK  137  A    between atoms: _328  and  _330
REMARK  138  A    between atoms: _330  and  _331
REMARK  139  A    between atoms: _333  and  _335
REMARK  140  A    between atoms: _335  and  _336
REMARK  141  A    between atoms: _335  and  _338
REMARK  142  A    between atoms: _338  and  _339
REMARK  143  A    between atoms: _342  and  _344
REMARK  144  A    between atoms: _344  and  _345
REMARK  145  A    between atoms: _344  and  _347
REMARK  146  A    between atoms: _347  and  _348
REMARK  147  A    between atoms: _353  and  _355
REMARK  148  A    between atoms: _355  and  _356
REMARK  149  A    between atoms: _355  and  _358
REMARK  150  A    between atoms: _358  and  _359
REMARK  151  A    between atoms: _365  and  _367
REMARK  152  A    between atoms: _367  and  _368
REMARK  153  A    between atoms: _367  and  _370
REMARK  154  A    between atoms: _370  and  _371
REMARK  155  A    between atoms: _376  and  _378
REMARK  156  A    between atoms: _378  and  _379
REMARK  157  A    between atoms: _378  and  _381
REMARK  158  A    between atoms: _381  and  _382
REMARK  159  A    between atoms: _392  and  _394
REMARK  160  A    between atoms: _394  and  _395
REMARK  161  A    between atoms: _394  and  _397
REMARK  162  A    between atoms: _397  and  _398
REMARK  163  A    between atoms: _398  and  _399
REMARK  164  A    between atoms: _399  and  _400
REMARK  165  A    between atoms: _400  and  _401
REMARK                            x       y       z     vdW  Elec       q    Type
REMARK                         _______ _______ _______ _____ _____    ______ ____
ROOT
ATOM      1  CG  LYS A   1       5.741  21.923 -10.451  0.00  0.00    -0.000 C 
ENDROOT
BRANCH   1   2
ATOM      2  CB  LYS A   1       6.101  21.544  -9.009  0.00  0.00    +0.025 C 
BRANCH   2   3
ATOM      3  CA  LYS A   1       5.823  20.083  -8.594  0.00  0.00    +0.133 C 
BRANCH   3   4
ATOM      4  N   LYS A   1       4.397  19.672  -8.820  0.00  0.00    -0.239 NA
ATOM      5  H   LYS A   1       3.696  19.897  -8.085  0.00  0.00    +0.142 HD
ENDBRANCH   3   4
BRANCH   3   6
ATOM      6  C   LYS A   1       6.294  19.872  -7.131  0.00  0.00    +0.224 C 
ATOM      7  O   LYS A   1       5.534  20.102  -6.178  0.00  0.00    -0.287 OA
ENDBRANCH   3   6
ENDBRANCH   2   3
ENDBRANCH   1   2
BRANCH   1   8
ATOM      8  CD  LYS A   1       5.136  23.363 -10.507  0.00  0.00    -0.024 C 
BRANCH   8   9
ATOM      9  CE  LYS A   1       4.485  23.662 -11.867  0.00  0.00    -0.086 C 
BRANCH   9  10
ATOM     10  NZ  LYS A   1       5.049  24.903 -12.478  0.00  0.00    +0.380 N 
ATOM     11  HZ1 LYS A   1       4.877  25.709 -11.844  0.00  0.00    -0.089 HD
ATOM     12  HZ2 LYS A   1       6.072  24.784 -12.620  0.00  0.00    -0.089 HD
ATOM     13  HZ3 LYS A   1       4.589  25.077 -13.394  0.00  0.00    -0.089 HD
ENDBRANCH   9  10
ENDBRANCH   8   9
ENDBRANCH   1   8
TORSDOF 7
REMARK  Name = ../refined-set-2016/2a5b/2a5b_pocket.pdb
REMARK  165 active torsions:
REMARK  status: ('A' for Active; 'I' for Inactive)
REMARK    1  A    between atoms: _1  and  _3
REMARK    2  A    between atoms: _3  and  _4
REMARK    3  A    between atoms: _3  and  _6
REMARK    4  A    between atoms: _6  and  _7
REMARK    5  A    between atoms: _12  and  _14
REMARK    6  A    between atoms: _14  and  _15
REMARK    7  A    between atoms: _14  and  _17
REMARK    8  A    between atoms: _17  and  _18
REMARK    9  A    between atoms: _21  and  _23
REMARK   10  A    between atoms: _23  and  _24
REMARK   11  A    between atoms: _23  and  _26
REMARK   12  A    between atoms: _26  and  _27
REMARK   13  A    between atoms: _30  and  _32
REMARK   14  A    between atoms: _32  and  _33
REMARK   15  A    between atoms: _32  and  _35
REMARK   16  A    between atoms: _35  and  _36
REMARK   17  A    between atoms: _38  and  _40
REMARK   18  A    between atoms: _40  and  _41
REMARK   19  A    between atoms: _40  and  _43
REMARK   20  A    between atoms: _43  and  _44
REMARK   21  A    between atoms: _49  and  _50
REMARK   22  A    between atoms: _52  and  _54
REMARK   23  A    between atoms: _54  and  _55
REMARK   24  A    between atoms: _54  and  _57
REMARK   25  A    between atoms: _57  and  _58
REMARK   26  A    between atoms: _61  and  _63
REMARK   27  A    between atoms: _63  and  _64
REMARK   28  A    between atoms: _63  and  _66
REMARK   29  A    between atoms: _66  and  _67
REMARK   30  A    between atoms: _70  and  _72
REMARK   31  A    between atoms: _72  and  _73
REMARK   32  A    between atoms: _76  and  _78
REMARK   33  A    between atoms: _78  and  _79
REMARK   34  A    between atoms: _78  and  _81
REMARK   35  A    between atoms: _79  and  _80
REMARK   36  A    between atoms: _79  and  _84
REMARK   37  A    between atoms: _80  and  _90
REMARK   38  A    between atoms: _84  and  _86
REMARK   39  A    between atoms: _86  and  _87
REMARK   40  A    between atoms: _86  and  _89
REMARK   41  A    between atoms: _93  and  _95
REMARK   42  A    between atoms: _95  and  _96
REMARK   43  A    between atoms: _95  and  _98
REMARK   44  A    between atoms: _98  and  _99
REMARK   45  A    between atoms: _99  and  _100
REMARK   46  A    between atoms: _100  and  _101
REMARK   47  A    between atoms: _101  and  _102
REMARK   48  A    between atoms: _106  and  _108
REMARK   49  A    between atoms: _108  and  _109
REMARK   50  A    between atoms: _108  and  _111
REMARK   51  A    between atoms: _111  and  _112
REMARK   52  A    between atoms: _114  and  _116
REMARK   53  A    between atoms: _116  and  _117
REMARK   54  A    between atoms: _116  and  _119
REMARK   55  A    between atoms: _122  and  _124
REMARK   56  A    between atoms: _124  and  _125
REMARK   57  A    between atoms: _124  and  _127
REMARK   58  A    between atoms: _127  and  _128
REMARK   59  A    between atoms: _138  and  _140
REMARK   60  A    between atoms: _140  and  _141
REMARK   61  A    between atoms: _140  and  _143
REMARK   62  A    between atoms: _143  and  _144
REMARK   63  A    between atoms: _144  and  _145
REMARK   64  A    between atoms: _145  and  _146
REMARK   65  A    between atoms: _146  and  _147
REMARK   66  A    between atoms: _151  and  _153
REMARK   67  A    between atoms: _153  and  _154
REMARK   68  A    between atoms: _153  and  _156
REMARK   69  A    between atoms: _156  and  _157
REMARK   70  A    between atoms: _163  and  _165
REMARK   71  A    between atoms: _165  and  _166
REMARK   72  A    between atoms: _165  and  _168
REMARK   73  A    between atoms: _168  and  _169
REMARK   74  A    between atoms: _171  and  _173
REMARK   75  A    between atoms: _173  and  _174
REMARK   76  A    between atoms: _173  and  _176
REMARK   77  A    between atoms: _176  and  _177
REMARK   78  A    between atoms: _177  and  _178
REMARK   79  A    between atoms: _181  and  _183
REMARK   80  A    between atoms: _183  and  _184
REMARK   81  A    between atoms: _183  and  _186
REMARK   82  A    between atoms: _186  and  _187
REMARK   83  A    between atoms: _189  and  _191
REMARK   84  A    between atoms: _191  and  _192
REMARK   85  A    between atoms: _191  and  _194
REMARK   86  A    between atoms: _194  and  _195
REMARK   87  A    between atoms: _198  and  _200
REMARK   88  A    between atoms: _200  and  _201
REMARK   89  A    between atoms: _200  and  _203
REMARK   90  A    between atoms: _203  and  _204
REMARK   91  A    between atoms: _207  and  _209
REMARK   92  A    between atoms: _209  and  _210
REMARK   93  A    between atoms: _209  and  _212
REMARK   94  A    between atoms: _215  and  _217
REMARK   95  A    between atoms: _217  and  _218
REMARK   96  A    between atoms: _217  and  _220
REMARK   97  A    between atoms: _220  and  _221
REMARK   98  A    between atoms: _227  and  _229
REMARK   99  A    between atoms: _229  and  _230
REMARK  100  A    between atoms: _229  and  _232
REMARK  101  A    between atoms: _232  and  _233
REMARK  102  A    between atoms: _236  and  _238
REMARK  103  A    between atoms: _238  and  _239
REMARK  104  A    between atoms: _238  and  _241
REMARK  105  A    between atoms: _241  and  _242
REMARK  106  A    between atoms: _252  and  _254
REMARK  107  A    between atoms: _254  and  _255
REMARK  108  A    between atoms: _254  and  _257
REMARK  109  A    between atoms: _257  and  _258
REMARK  110  A    between atoms: _261  and  _263
REMARK  111  A    between atoms: _263  and  _264
REMARK  112  A    between atoms: _263  and  _266
REMARK  113  A    between atoms: _266  and  _267
REMARK  114  A    between atoms: _270  and  _272
REMARK  115  A    between atoms: _272  and  _273
REMARK  116  A    between atoms: _272  and  _275
REMARK  117  A    between atoms: _275  and  _276
REMARK  118  A    between atoms: _276  and  _277
REMARK  119  A    between atoms: _277  and  _278
REMARK  120  A    between atoms: _287  and  _289
REMARK  121  A    between atoms: _289  and  _290
REMARK  122  A    between atoms: _289  and  _292
REMARK  123  A    between atoms: _292  and  _293
REMARK  124  A    between atoms: _295  and  _297
REMARK  125  A    between atoms: _297  and  _298
REMARK  126  A    between atoms: _297  and  _300
REMARK  127  A    between atoms: _300  and  _301
REMARK  128  A    between atoms: _303  and  _305
REMARK  129  A    between atoms: _305  and  _306
REMARK  130  A    between atoms: _305  and  _308
REMARK  131  A    between atoms: _308  and  _309
REMARK  132  A    between atoms: _309  and  _310
REMARK  133  A    between atoms: _310  and  _311
REMARK  134  A    between atoms: _320  and  _322
REMARK  135  A    between atoms: _322  and  _323
REMARK  136  A    between atoms: _322  and  _325
REMARK  137  A    between atoms: _328  and  _330
REMARK  138  A    between atoms: _330  and  _331
REMARK  139  A    between atoms: _333  and  _335
REMARK  140  A    between atoms: _335  and  _336
REMARK  141  A    between atoms: _335  and  _338
REMARK  142  A    between atoms: _338  and  _339
REMARK  143  A    between atoms: _342  and  _344
REMARK  144  A    between atoms: _344  and  _345
REMARK  145  A    between atoms: _344  and  _347
REMARK  146  A    between atoms: _347  and  _348
REMARK  147  A    between atoms: _353  and  _355
REMARK  148  A    between atoms: _355  and  _356
REMARK  149  A    between atoms: _355  and  _358
REMARK  150  A    between atoms: _358  and  _359
REMARK  151  A    between atoms: _365  and  _367
REMARK  152  A    between atoms: _367  and  _368
REMARK  153  A    between atoms: _367  and  _370
REMARK  154  A    between atoms: _370  and  _371
REMARK  155  A    between atoms: _376  and  _378
REMARK  156  A    between atoms: _378  and  _379
REMARK  157  A    between atoms: _378  and  _381
REMARK  158  A    between atoms: _381  and  _382
REMARK  159  A    between atoms: _392  and  _394
REMARK  160  A    between atoms: _394  and  _395
REMARK  161  A    between atoms: _394  and  _397
REMARK  162  A    between atoms: _397  and  _398
REMARK  163  A    between atoms: _398  and  _399
REMARK  164  A    between atoms: _399  and  _400
REMARK  165  A    between atoms: _400  and  _401
REMARK                            x       y       z     vdW  Elec       q    Type
REMARK                         _______ _______ _______ _____ _____    ______ ____
ROOT
ATOM      1  CA  SER A   1      10.034  21.904  -3.818  0.00  0.00    +0.163 C 
ENDROOT
BRANCH   1   2
ATOM      2  N   SER A   1       9.051  20.933  -4.250  0.00  0.00    -0.237 NA
ATOM      3  H   SER A   1       8.274  20.685  -3.605  0.00  0.00    +0.142 HD
ENDBRANCH   1   2
BRANCH   1   4
ATOM      4  C   SER A   1      10.526  21.565  -2.410  0.00  0.00    +0.227 C 
ATOM      5  O   SER A   1       9.771  21.051  -1.566  0.00  0.00    -0.287 OA
ENDBRANCH   1   4
BRANCH   1   6
ATOM      6  CB  SER A   1       9.447  23.302  -3.830  0.00  0.00    +0.162 C 
BRANCH   6   7
ATOM      7  OG  SER A   1       9.079  23.704  -5.127  0.00  0.00    -0.380 OA
ATOM      8  H   SER A   1       8.701  24.619  -5.093  0.00  0.00    +0.211 HD
ENDBRANCH   6   7
ENDBRANCH   1   6
TORSDOF 4
REMARK  Name = ../refined-set-2016/2a5b/2a5b_pocket.pdb
REMARK  165 active torsions:
REMARK  status: ('A' for Active; 'I' for Inactive)
REMARK    1  A    between atoms: _1  and  _3
REMARK    2  A    between atoms: _3  and  _4
REMARK    3  A    between atoms: _3  and  _6
REMARK    4  A    between atoms: _6  and  _7
REMARK    5  A    between atoms: _12  and  _14
REMARK    6  A    between atoms: _14  and  _15
REMARK    7  A    between atoms: _14  and  _17
REMARK    8  A    between atoms: _17  and  _18
REMARK    9  A    between atoms: _21  and  _23
REMARK   10  A    between atoms: _23  and  _24
REMARK   11  A    between atoms: _23  and  _26
REMARK   12  A    between atoms: _26  and  _27
REMARK   13  A    between atoms: _30  and  _32
REMARK   14  A    between atoms: _32  and  _33
REMARK   15  A    between atoms: _32  and  _35
REMARK   16  A    between atoms: _35  and  _36
REMARK   17  A    between atoms: _38  and  _40
REMARK   18  A    between atoms: _40  and  _41
REMARK   19  A    between atoms: _40  and  _43
REMARK   20  A    between atoms: _43  and  _44
REMARK   21  A    between atoms: _49  and  _50
REMARK   22  A    between atoms: _52  and  _54
REMARK   23  A    between atoms: _54  and  _55
REMARK   24  A    between atoms: _54  and  _57
REMARK   25  A    between atoms: _57  and  _58
REMARK   26  A    between atoms: _61  and  _63
REMARK   27  A    between atoms: _63  and  _64
REMARK   28  A    between atoms: _63  and  _66
REMARK   29  A    between atoms: _66  and  _67
REMARK   30  A    between atoms: _70  and  _72
REMARK   31  A    between atoms: _72  and  _73
REMARK   32  A    between atoms: _76  and  _78
REMARK   33  A    between atoms: _78  and  _79
REMARK   34  A    between atoms: _78  and  _81
REMARK   35  A    between atoms: _79  and  _80
REMARK   36  A    between atoms: _79  and  _84
REMARK   37  A    between atoms: _80  and  _90
REMARK   38  A    between atoms: _84  and  _86
REMARK   39  A    between atoms: _86  and  _87
REMARK   40  A    between atoms: _86  and  _89
REMARK   41  A    between atoms: _93  and  _95
REMARK   42  A    between atoms: _95  and  _96
REMARK   43  A    between atoms: _95  and  _98
REMARK   44  A    between atoms: _98  and  _99
REMARK   45  A    between atoms: _99  and  _100
REMARK   46  A    between atoms: _100  and  _101
REMARK   47  A    between atoms: _101  and  _102
REMARK   48  A    between atoms: _106  and  _108
REMARK   49  A    between atoms: _108  and  _109
REMARK   50  A    between atoms: _108  and  _111
REMARK   51  A    between atoms: _111  and  _112
REMARK   52  A    between atoms: _114  and  _116
REMARK   53  A    between atoms: _116  and  _117
REMARK   54  A    between atoms: _116  and  _119
REMARK   55  A    between atoms: _122  and  _124
REMARK   56  A    between atoms: _124  and  _125
REMARK   57  A    between atoms: _124  and  _127
REMARK   58  A    between atoms: _127  and  _128
REMARK   59  A    between atoms: _138  and  _140
REMARK   60  A    between atoms: _140  and  _141
REMARK   61  A    between atoms: _140  and  _143
REMARK   62  A    between atoms: _143  and  _144
REMARK   63  A    between atoms: _144  and  _145
REMARK   64  A    between atoms: _145  and  _146
REMARK   65  A    between atoms: _146  and  _147
REMARK   66  A    between atoms: _151  and  _153
REMARK   67  A    between atoms: _153  and  _154
REMARK   68  A    between atoms: _153  and  _156
REMARK   69  A    between atoms: _156  and  _157
REMARK   70  A    between atoms: _163  and  _165
REMARK   71  A    between atoms: _165  and  _166
REMARK   72  A    between atoms: _165  and  _168
REMARK   73  A    between atoms: _168  and  _169
REMARK   74  A    between atoms: _171  and  _173
REMARK   75  A    between atoms: _173  and  _174
REMARK   76  A    between atoms: _173  and  _176
REMARK   77  A    between atoms: _176  and  _177
REMARK   78  A    between atoms: _177  and  _178
REMARK   79  A    between atoms: _181  and  _183
REMARK   80  A    between atoms: _183  and  _184
REMARK   81  A    between atoms: _183  and  _186
REMARK   82  A    between atoms: _186  and  _187
REMARK   83  A    between atoms: _189  and  _191
REMARK   84  A    between atoms: _191  and  _192
REMARK   85  A    between atoms: _191  and  _194
REMARK   86  A    between atoms: _194  and  _195
REMARK   87  A    between atoms: _198  and  _200
REMARK   88  A    between atoms: _200  and  _201
REMARK   89  A    between atoms: _200  and  _203
REMARK   90  A    between atoms: _203  and  _204
REMARK   91  A    between atoms: _207  and  _209
REMARK   92  A    between atoms: _209  and  _210
REMARK   93  A    between atoms: _209  and  _212
REMARK   94  A    between atoms: _215  and  _217
REMARK   95  A    between atoms: _217  and  _218
REMARK   96  A    between atoms: _217  and  _220
REMARK   97  A    between atoms: _220  and  _221
REMARK   98  A    between atoms: _227  and  _229
REMARK   99  A    between atoms: _229  and  _230
REMARK  100  A    between atoms: _229  and  _232
REMARK  101  A    between atoms: _232  and  _233
REMARK  102  A    between atoms: _236  and  _238
REMARK  103  A    between atoms: _238  and  _239
REMARK  104  A    between atoms: _238  and  _241
REMARK  105  A    between atoms: _241  and  _242
REMARK  106  A    between atoms: _252  and  _254
REMARK  107  A    between atoms: _254  and  _255
REMARK  108  A    between atoms: _254  and  _257
REMARK  109  A    between atoms: _257  and  _258
REMARK  110  A    between atoms: _261  and  _263
REMARK  111  A    between atoms: _263  and  _264
REMARK  112  A    between atoms: _263  and  _266
REMARK  113  A    between atoms: _266  and  _267
REMARK  114  A    between atoms: _270  and  _272
REMARK  115  A    between atoms: _272  and  _273
REMARK  116  A    between atoms: _272  and  _275
REMARK  117  A    between atoms: _275  and  _276
REMARK  118  A    between atoms: _276  and  _277
REMARK  119  A    between atoms: _277  and  _278
REMARK  120  A    between atoms: _287  and  _289
REMARK  121  A    between atoms: _289  and  _290
REMARK  122  A    between atoms: _289  and  _292
REMARK  123  A    between atoms: _292  and  _293
REMARK  124  A    between atoms: _295  and  _297
REMARK  125  A    between atoms: _297  and  _298
REMARK  126  A    between atoms: _297  and  _300
REMARK  127  A    between atoms: _300  and  _301
REMARK  128  A    between atoms: _303  and  _305
REMARK  129  A    between atoms: _305  and  _306
REMARK  130  A    between atoms: _305  and  _308
REMARK  131  A    between atoms: _308  and  _309
REMARK  132  A    between atoms: _309  and  _310
REMARK  133  A    between atoms: _310  and  _311
REMARK  134  A    between atoms: _320  and  _322
REMARK  135  A    between atoms: _322  and  _323
REMARK  136  A    between atoms: _322  and  _325
REMARK  137  A    between atoms: _328  and  _330
REMARK  138  A    between atoms: _330  and  _331
REMARK  139  A    between atoms: _333  and  _335
REMARK  140  A    between atoms: _335  and  _336
REMARK  141  A    between atoms: _335  and  _338
REMARK  142  A    between atoms: _338  and  _339
REMARK  143  A    between atoms: _342  and  _344
REMARK  144  A    between atoms: _344  and  _345
REMARK  145  A    between atoms: _344  and  _347
REMARK  146  A    between atoms: _347  and  _348
REMARK  147  A    between atoms: _353  and  _355
REMARK  148  A    between atoms: _355  and  _356
REMARK  149  A    between atoms: _355  and  _358
REMARK  150  A    between atoms: _358  and  _359
REMARK  151  A    between atoms: _365  and  _367
REMARK  152  A    between atoms: _367  and  _368
REMARK  153  A    between atoms: _367  and  _370
REMARK  154  A    between atoms: _370  and  _371
REMARK  155  A    between atoms: _376  and  _378
REMARK  156  A    between atoms: _378  and  _379
REMARK  157  A    between atoms: _378  and  _381
REMARK  158  A    between atoms: _381  and  _382
REMARK  159  A    between atoms: _392  and  _394
REMARK  160  A    between atoms: _394  and  _395
REMARK  161  A    between atoms: _394  and  _397
REMARK  162  A    between atoms: _397  and  _398
REMARK  163  A    between atoms: _398  and  _399
REMARK  164  A    between atoms: _399  and  _400
REMARK  165  A    between atoms: _400  and  _401
REMARK                            x       y       z     vdW  Elec       q    Type
REMARK                         _______ _______ _______ _____ _____    ______ ____
ROOT
ATOM      1  CA  VAL A   1       9.762  26.716   0.997  0.00  0.00    +0.133 C 
ENDROOT
BRANCH   1   2
ATOM      2  CB  VAL A   1       8.311  26.409   0.725  0.00  0.00    +0.023 C 
ATOM      3  CG2 VAL A   1       7.735  25.546   1.793  0.00  0.00    +0.002 C 
ATOM      4  CG1 VAL A   1       8.198  25.734  -0.608  0.00  0.00    +0.002 C 
ENDBRANCH   1   2
BRANCH   1   5
ATOM      5  N   VAL A   1       9.928  27.448   2.195  0.00  0.00    -0.239 NA
ATOM      6  H   VAL A   1       9.330  28.283   2.359  0.00  0.00    +0.142 HD
ENDBRANCH   1   5
BRANCH   1   7
ATOM      7  C   VAL A   1      10.361  27.528  -0.135  0.00  0.00    +0.224 C 
ATOM      8  O   VAL A   1       9.985  28.688  -0.441  0.00  0.00    -0.287 OA
ENDBRANCH   1   7
TORSDOF 3
REMARK  Name = ../refined-set-2016/2a5b/2a5b_pocket.pdb
REMARK  165 active torsions:
REMARK  status: ('A' for Active; 'I' for Inactive)
REMARK    1  A    between atoms: _1  and  _3
REMARK    2  A    between atoms: _3  and  _4
REMARK    3  A    between atoms: _3  and  _6
REMARK    4  A    between atoms: _6  and  _7
REMARK    5  A    between atoms: _12  and  _14
REMARK    6  A    between atoms: _14  and  _15
REMARK    7  A    between atoms: _14  and  _17
REMARK    8  A    between atoms: _17  and  _18
REMARK    9  A    between atoms: _21  and  _23
REMARK   10  A    between atoms: _23  and  _24
REMARK   11  A    between atoms: _23  and  _26
REMARK   12  A    between atoms: _26  and  _27
REMARK   13  A    between atoms: _30  and  _32
REMARK   14  A    between atoms: _32  and  _33
REMARK   15  A    between atoms: _32  and  _35
REMARK   16  A    between atoms: _35  and  _36
REMARK   17  A    between atoms: _38  and  _40
REMARK   18  A    between atoms: _40  and  _41
REMARK   19  A    between atoms: _40  and  _43
REMARK   20  A    between atoms: _43  and  _44
REMARK   21  A    between atoms: _49  and  _50
REMARK   22  A    between atoms: _52  and  _54
REMARK   23  A    between atoms: _54  and  _55
REMARK   24  A    between atoms: _54  and  _57
REMARK   25  A    between atoms: _57  and  _58
REMARK   26  A    between atoms: _61  and  _63
REMARK   27  A    between atoms: _63  and  _64
REMARK   28  A    between atoms: _63  and  _66
REMARK   29  A    between atoms: _66  and  _67
REMARK   30  A    between atoms: _70  and  _72
REMARK   31  A    between atoms: _72  and  _73
REMARK   32  A    between atoms: _76  and  _78
REMARK   33  A    between atoms: _78  and  _79
REMARK   34  A    between atoms: _78  and  _81
REMARK   35  A    between atoms: _79  and  _80
REMARK   36  A    between atoms: _79  and  _84
REMARK   37  A    between atoms: _80  and  _90
REMARK   38  A    between atoms: _84  and  _86
REMARK   39  A    between atoms: _86  and  _87
REMARK   40  A    between atoms: _86  and  _89
REMARK   41  A    between atoms: _93  and  _95
REMARK   42  A    between atoms: _95  and  _96
REMARK   43  A    between atoms: _95  and  _98
REMARK   44  A    between atoms: _98  and  _99
REMARK   45  A    between atoms: _99  and  _100
REMARK   46  A    between atoms: _100  and  _101
REMARK   47  A    between atoms: _101  and  _102
REMARK   48  A    between atoms: _106  and  _108
REMARK   49  A    between atoms: _108  and  _109
REMARK   50  A    between atoms: _108  and  _111
REMARK   51  A    between atoms: _111  and  _112
REMARK   52  A    between atoms: _114  and  _116
REMARK   53  A    between atoms: _116  and  _117
REMARK   54  A    between atoms: _116  and  _119
REMARK   55  A    between atoms: _122  and  _124
REMARK   56  A    between atoms: _124  and  _125
REMARK   57  A    between atoms: _124  and  _127
REMARK   58  A    between atoms: _127  and  _128
REMARK   59  A    between atoms: _138  and  _140
REMARK   60  A    between atoms: _140  and  _141
REMARK   61  A    between atoms: _140  and  _143
REMARK   62  A    between atoms: _143  and  _144
REMARK   63  A    between atoms: _144  and  _145
REMARK   64  A    between atoms: _145  and  _146
REMARK   65  A    between atoms: _146  and  _147
REMARK   66  A    between atoms: _151  and  _153
REMARK   67  A    between atoms: _153  and  _154
REMARK   68  A    between atoms: _153  and  _156
REMARK   69  A    between atoms: _156  and  _157
REMARK   70  A    between atoms: _163  and  _165
REMARK   71  A    between atoms: _165  and  _166
REMARK   72  A    between atoms: _165  and  _168
REMARK   73  A    between atoms: _168  and  _169
REMARK   74  A    between atoms: _171  and  _173
REMARK   75  A    between atoms: _173  and  _174
REMARK   76  A    between atoms: _173  and  _176
REMARK   77  A    between atoms: _176  and  _177
REMARK   78  A    between atoms: _177  and  _178
REMARK   79  A    between atoms: _181  and  _183
REMARK   80  A    between atoms: _183  and  _184
REMARK   81  A    between atoms: _183  and  _186
REMARK   82  A    between atoms: _186  and  _187
REMARK   83  A    between atoms: _189  and  _191
REMARK   84  A    between atoms: _191  and  _192
REMARK   85  A    between atoms: _191  and  _194
REMARK   86  A    between atoms: _194  and  _195
REMARK   87  A    between atoms: _198  and  _200
REMARK   88  A    between atoms: _200  and  _201
REMARK   89  A    between atoms: _200  and  _203
REMARK   90  A    between atoms: _203  and  _204
REMARK   91  A    between atoms: _207  and  _209
REMARK   92  A    between atoms: _209  and  _210
REMARK   93  A    between atoms: _209  and  _212
REMARK   94  A    between atoms: _215  and  _217
REMARK   95  A    between atoms: _217  and  _218
REMARK   96  A    between atoms: _217  and  _220
REMARK   97  A    between atoms: _220  and  _221
REMARK   98  A    between atoms: _227  and  _229
REMARK   99  A    between atoms: _229  and  _230
REMARK  100  A    between atoms: _229  and  _232
REMARK  101  A    between atoms: _232  and  _233
REMARK  102  A    between atoms: _236  and  _238
REMARK  103  A    between atoms: _238  and  _239
REMARK  104  A    between atoms: _238  and  _241
REMARK  105  A    between atoms: _241  and  _242
REMARK  106  A    between atoms: _252  and  _254
REMARK  107  A    between atoms: _254  and  _255
REMARK  108  A    between atoms: _254  and  _257
REMARK  109  A    between atoms: _257  and  _258
REMARK  110  A    between atoms: _261  and  _263
REMARK  111  A    between atoms: _263  and  _264
REMARK  112  A    between atoms: _263  and  _266
REMARK  113  A    between atoms: _266  and  _267
REMARK  114  A    between atoms: _270  and  _272
REMARK  115  A    between atoms: _272  and  _273
REMARK  116  A    between atoms: _272  and  _275
REMARK  117  A    between atoms: _275  and  _276
REMARK  118  A    between atoms: _276  and  _277
REMARK  119  A    between atoms: _277  and  _278
REMARK  120  A    between atoms: _287  and  _289
REMARK  121  A    between atoms: _289  and  _290
REMARK  122  A    between atoms: _289  and  _292
REMARK  123  A    between atoms: _292  and  _293
REMARK  124  A    between atoms: _295  and  _297
REMARK  125  A    between atoms: _297  and  _298
REMARK  126  A    between atoms: _297  and  _300
REMARK  127  A    between atoms: _300  and  _301
REMARK  128  A    between atoms: _303  and  _305
REMARK  129  A    between atoms: _305  and  _306
REMARK  130  A    between atoms: _305  and  _308
REMARK  131  A    between atoms: _308  and  _309
REMARK  132  A    between atoms: _309  and  _310
REMARK  133  A    between atoms: _310  and  _311
REMARK  134  A    between atoms: _320  and  _322
REMARK  135  A    between atoms: _322  and  _323
REMARK  136  A    between atoms: _322  and  _325
REMARK  137  A    between atoms: _328  and  _330
REMARK  138  A    between atoms: _330  and  _331
REMARK  139  A    between atoms: _333  and  _335
REMARK  140  A    between atoms: _335  and  _336
REMARK  141  A    between atoms: _335  and  _338
REMARK  142  A    between atoms: _338  and  _339
REMARK  143  A    between atoms: _342  and  _344
REMARK  144  A    between atoms: _344  and  _345
REMARK  145  A    between atoms: _344  and  _347
REMARK  146  A    between atoms: _347  and  _348
REMARK  147  A    between atoms: _353  and  _355
REMARK  148  A    between atoms: _355  and  _356
REMARK  149  A    between atoms: _355  and  _358
REMARK  150  A    between atoms: _358  and  _359
REMARK  151  A    between atoms: _365  and  _367
REMARK  152  A    between atoms: _367  and  _368
REMARK  153  A    between atoms: _367  and  _370
REMARK  154  A    between atoms: _370  and  _371
REMARK  155  A    between atoms: _376  and  _378
REMARK  156  A    between atoms: _378  and  _379
REMARK  157  A    between atoms: _378  and  _381
REMARK  158  A    between atoms: _381  and  _382
REMARK  159  A    between atoms: _392  and  _394
REMARK  160  A    between atoms: _394  and  _395
REMARK  161  A    between atoms: _394  and  _397
REMARK  162  A    between atoms: _397  and  _398
REMARK  163  A    between atoms: _398  and  _399
REMARK  164  A    between atoms: _399  and  _400
REMARK  165  A    between atoms: _400  and  _401
REMARK                            x       y       z     vdW  Elec       q    Type
REMARK                         _______ _______ _______ _____ _____    ______ ____
ROOT
ATOM      1  CA  GLU A   5      11.712  32.965  -8.222  0.00  0.00    +0.149 C 
ENDROOT
BRANCH   1   2
ATOM      2  C   GLU A   5      11.180  33.315  -6.830  0.00  0.00    +0.241 C 
ATOM      3  O   GLU A   5      11.852  34.011  -6.094  0.00  0.00    -0.273 OA
ATOM      4  N   SER A   6       9.993  32.845  -6.452  0.00  0.00    -0.295 N 
ATOM      5  H   SER A   6       9.446  32.240  -7.097  0.00  0.00    +0.150 HD
BRANCH   4   6
ATOM      6  CA  SER A   6       9.448  33.180  -5.117  0.00  0.00    +0.178 C 
BRANCH   6   7
ATOM      7  C   SER A   6       9.937  32.361  -3.910  0.00  0.00    +0.243 C 
ATOM      8  N   THR A   7       9.651  32.856  -2.723  0.00  0.00    -0.295 N 
ATOM      9  H   THR A   7       9.214  33.798  -2.656  0.00  0.00    +0.150 HD
ATOM     10  O   SER A   6      10.561  31.297  -4.046  0.00  0.00    -0.273 OA
BRANCH   8  11
ATOM     11  CA  THR A   7       9.933  32.113  -1.501  0.00  0.00    +0.176 C 
BRANCH  11  12
ATOM     12  C   THR A   7       8.706  32.289  -0.640  0.00  0.00    +0.243 C 
ATOM     13  N   THR A   8       8.295  31.202   0.011  0.00  0.00    -0.295 N 
ATOM     14  H   THR A   8       8.727  30.280  -0.202  0.00  0.00    +0.150 HD
ATOM     15  O   THR A   7       8.144  33.403  -0.548  0.00  0.00    -0.273 OA
BRANCH  13  16
ATOM     16  CA  THR A   8       7.242  31.292   1.022  0.00  0.00    +0.176 C 
BRANCH  16  17
ATOM     17  C   THR A   8       7.760  30.806   2.347  0.00  0.00    +0.243 C 
ATOM     18  N   VAL A   9       7.304  31.396   3.451  0.00  0.00    -0.297 N 
ATOM     19  H   VAL A   9       6.659  32.207   3.364  0.00  0.00    +0.150 HD
ATOM     20  O   THR A   8       8.547  29.876   2.351  0.00  0.00    -0.273 OA
BRANCH  18  21
ATOM     21  CA  VAL A   9       7.685  30.936   4.762  0.00  0.00    +0.149 C 
BRANCH  21  22
ATOM     22  C   VAL A   9       6.387  30.705   5.490  0.00  0.00    +0.241 C 
ATOM     23  N   PHE A  10       6.395  29.671   6.343  0.00  0.00    -0.298 N 
ATOM     24  H   PHE A  10       7.285  29.149   6.474  0.00  0.00    +0.150 HD
ATOM     25  O   VAL A   9       5.382  31.470   5.271  0.00  0.00    -0.273 OA
BRANCH  23  26
ATOM     26  CA  PHE A  10       5.219  29.235   7.101  0.00  0.00    +0.141 C 
BRANCH  26  27
ATOM     27  C   PHE A  10       5.610  29.239   8.545  0.00  0.00    +0.227 C 
ATOM     28  O   PHE A  10       6.740  28.856   8.914  0.00  0.00    -0.286 OA
ENDBRANCH  26  27
BRANCH  26  29
ATOM     29  CB  PHE A  10       4.856  27.796   6.774  0.00  0.00    +0.054 C 
BRANCH  29  30
ATOM     30  CG  PHE A  10       4.302  27.577   5.407  0.00  0.00    -0.020 A 
ATOM     31  CD2 PHE A  10       2.955  27.382   5.218  0.00  0.00    -0.004 A 
ATOM     32  CE2 PHE A  10       2.456  27.146   3.968  0.00  0.00    -0.000 A 
ATOM     33  CZ  PHE A  10       3.282  27.081   2.890  0.00  0.00    -0.000 A 
ATOM     34  CE1 PHE A  10       4.599  27.253   3.048  0.00  0.00    -0.000 A 
ATOM     35  CD1 PHE A  10       5.120  27.499   4.315  0.00  0.00    -0.004 A 
ENDBRANCH  29  30
ENDBRANCH  26  29
ENDBRANCH  23  26
ENDBRANCH  21  22
BRANCH  21  36
ATOM     36  CB  VAL A   9       8.491  31.998   5.535  0.00  0.00    +0.027 C 
ATOM     37  CG2 VAL A   9       7.780  33.434   5.431  0.00  0.00    +0.002 C 
ATOM     38  CG1 VAL A   9       9.941  32.022   5.080  0.00  0.00    +0.002 C 
ENDBRANCH  21  36
ENDBRANCH  18  21
ENDBRANCH  16  17
BRANCH  16  39
ATOM     39  CB  THR A   8       6.113  30.386   0.625  0.00  0.00    +0.137 C 
ATOM     40  CG2 THR A   8       5.018  30.399   1.675  0.00  0.00    +0.034 C 
BRANCH  39  41
ATOM     41  OG1 THR A   8       5.612  30.892  -0.595  0.00  0.00    -0.382 OA
ATOM     42  HG1 THR A   8       4.860  30.326  -0.902  0.00  0.00    +0.210 HD
ENDBRANCH  39  41
ENDBRANCH  16  39
ENDBRANCH  13  16
ENDBRANCH  11  12
BRANCH  11  43
ATOM     43  CB  THR A   7      11.119  32.724  -0.747  0.00  0.00    +0.137 C 
ATOM     44  CG2 THR A   7      11.521  31.914   0.464  0.00  0.00    +0.034 C 
BRANCH  43  45
ATOM     45  OG1 THR A   7      12.233  32.816  -1.627  0.00  0.00    -0.382 OA
ATOM     46  HG1 THR A   7      11.996  33.390  -2.398  0.00  0.00    +0.210 HD
ENDBRANCH  43  45
ENDBRANCH  11  43
ENDBRANCH   8  11
ENDBRANCH   6   7
BRANCH   6  47
ATOM     47  CB  SER A   6       7.955  33.118  -5.170  0.00  0.00    +0.166 C 
BRANCH  47  48
ATOM     48  OG  SER A   6       7.492  33.960  -6.225  0.00  0.00    -0.380 OA
ATOM     49  H   SER A   6       7.782  34.891  -6.054  0.00  0.00    +0.211 HD
ENDBRANCH  47  48
ENDBRANCH   6  47
ENDBRANCH   4   6
ENDBRANCH   1   2
BRANCH   1  52
ATOM     50  C   SER A   4      10.648  30.975  -8.876  0.00  0.00    +0.243 C 
ATOM     51  O   SER A   4      11.445  30.316  -8.204  0.00  0.00    -0.273 OA
ATOM     52  N   GLU A   5      10.735  32.284  -8.975  0.00  0.00    -0.297 N 
ATOM     53  H   GLU A   5      10.091  32.809  -9.601  0.00  0.00    +0.150 HD
BRANCH  50  54
ATOM     54  CA  SER A   4       9.524  30.301  -9.661  0.00  0.00    +0.178 C 
BRANCH  54  56
ATOM     55  C   PHE A   3       9.157  28.029 -10.555  0.00  0.00    +0.241 C 
ATOM     56  N   SER A   4       9.673  28.832  -9.628  0.00  0.00    -0.295 N 
ATOM     57  H   SER A   4      10.206  28.405  -8.844  0.00  0.00    +0.150 HD
ATOM     58  O   PHE A   3       8.482  28.437 -11.470  0.00  0.00    -0.273 OA
BRANCH  55  59
ATOM     59  CA  PHE A   3       9.364  26.539 -10.399  0.00  0.00    +0.153 C 
BRANCH  59  61
ATOM     60  C   LYS A   2      11.119  25.657  -9.030  0.00  0.00    +0.241 C 
ATOM     61  N   PHE A   3       9.912  26.176  -9.112  0.00  0.00    -0.297 N 
ATOM     62  H   PHE A   3       9.352  26.325  -8.249  0.00  0.00    +0.150 HD
ATOM     63  O   LYS A   2      11.873  25.593  -9.979  0.00  0.00    -0.273 OA
BRANCH  60  64
ATOM     64  CA  LYS A   2      11.570  25.195  -7.672  0.00  0.00    +0.149 C 
BRANCH  64  67
ATOM     65  C   TRP A   1      10.909  26.853  -6.044  0.00  0.00    +0.239 C 
ATOM     66  O   TRP A   1      11.838  27.600  -6.401  0.00  0.00    -0.274 OA
ATOM     67  N   LYS A   2      10.688  25.656  -6.594  0.00  0.00    -0.297 N 
ATOM     68  H   LYS A   2       9.903  25.060  -6.263  0.00  0.00    +0.150 HD
BRANCH  65  69
ATOM     69  CA  TRP A   1       9.963  27.260  -4.916  0.00  0.00    +0.149 C 
BRANCH  69  70
ATOM     70  N   TRP A   1      10.622  27.712  -3.691  0.00  0.00    -0.238 NA
ATOM     71  H   TRP A   1      10.324  28.600  -3.239  0.00  0.00    +0.142 HD
ENDBRANCH  69  70
BRANCH  69  72
ATOM     72  CB  TRP A   1       8.964  28.299  -5.391  0.00  0.00    +0.054 C 
BRANCH  72  73
ATOM     73  CG  TRP A   1       8.064  28.607  -4.290  0.00  0.00    -0.002 A 
ATOM     74  CD1 TRP A   1       7.993  29.767  -3.605  0.00  0.00    +0.068 A 
ATOM     75  NE1 TRP A   1       7.049  29.670  -2.619  0.00  0.00    -0.352 N 
ATOM     76  HE1 TRP A   1       6.792  30.428  -1.955  0.00  0.00    +0.166 HD
ATOM     77  CE2 TRP A   1       6.496  28.418  -2.644  0.00  0.00    +0.056 A 
ATOM     78  CZ2 TRP A   1       5.507  27.848  -1.823  0.00  0.00    +0.017 A 
ATOM     79  CH2 TRP A   1       5.118  26.539  -2.072  0.00  0.00    +0.001 A 
ATOM     80  CZ3 TRP A   1       5.719  25.786  -3.101  0.00  0.00    +0.000 A 
ATOM     81  CE3 TRP A   1       6.748  26.368  -3.924  0.00  0.00    +0.001 A 
ATOM     82  CD2 TRP A   1       7.123  27.711  -3.682  0.00  0.00    +0.013 A 
ENDBRANCH  72  73
ENDBRANCH  69  72
ENDBRANCH  65  69
ENDBRANCH  64  67
BRANCH  64  83
ATOM     83  CB  LYS A   2      11.921  23.707  -7.628  0.00  0.00    +0.029 C 
BRANCH  83  84
ATOM     84  CG  LYS A   2      13.411  23.525  -7.301  0.00  0.00    +0.000 C 
BRANCH  84  85
ATOM     85  CD  LYS A   2      13.766  24.201  -5.932  0.00  0.00    -0.024 C 
BRANCH  85  86
ATOM     86  CE  LYS A   2      15.264  24.171  -5.617  0.00  0.00    -0.086 C 
BRANCH  86  87
ATOM     87  NZ  LYS A   2      16.033  25.416  -6.113  0.00  0.00    +0.380 N 
ATOM     88  HZ1 LYS A   2      15.640  26.267  -5.662  0.00  0.00    -0.089 HD
ATOM     89  HZ2 LYS A   2      17.038  25.323  -5.864  0.00  0.00    -0.089 HD
ATOM     90  HZ3 LYS A   2      15.936  25.493  -7.146  0.00  0.00    -0.089 HD
ENDBRANCH  86  87
ENDBRANCH  85  86
ENDBRANCH  84  85
ENDBRANCH  83  84
ENDBRANCH  64  83
ENDBRANCH  60  64
ENDBRANCH  59  61
BRANCH  59  91
ATOM     91  CB  PHE A   3       8.025  25.838 -10.560  0.00  0.00    +0.055 C 
BRANCH  91  92
ATOM     92  CG  PHE A   3       7.111  25.995  -9.373  0.00  0.00    -0.020 A 
ATOM     93  CD2 PHE A   3       7.238  25.172  -8.258  0.00  0.00    -0.004 A 
ATOM     94  CE2 PHE A   3       6.357  25.310  -7.127  0.00  0.00    -0.000 A 
ATOM     95  CZ  PHE A   3       5.358  26.262  -7.148  0.00  0.00    -0.000 A 
ATOM     96  CE1 PHE A   3       5.241  27.091  -8.272  0.00  0.00    -0.000 A 
ATOM     97  CD1 PHE A   3       6.118  26.942  -9.375  0.00  0.00    -0.004 A 
ENDBRANCH  91  92
ENDBRANCH  59  91
ENDBRANCH  55  59
ENDBRANCH  54  56
BRANCH  54  98
ATOM     98  CB  SER A   4       8.177  30.756  -9.107  0.00  0.00    +0.166 C 
BRANCH  98  99
ATOM     99  OG  SER A   4       8.193  30.700  -7.698  0.00  0.00    -0.380 OA
ATOM    100  H   SER A   4       7.316  30.997  -7.347  0.00  0.00    +0.211 HD
ENDBRANCH  98  99
ENDBRANCH  54  98
ENDBRANCH  50  54
ENDBRANCH   1  52
BRANCH   1 101
ATOM    101  CB  GLU A   5      12.157  34.230  -8.969  0.00  0.00    +0.041 C 
BRANCH 101 102
ATOM    102  CG  GLU A   5      13.123  34.003 -10.095  0.00  0.00    +0.116 C 
BRANCH 102 103
ATOM    103  CD  GLU A   5      13.120  35.139 -11.147  0.00  0.00    +0.365 C 
ATOM    104  OE2 GLU A   5      12.549  36.225 -10.895  0.00  0.00    -0.246 OA
ATOM    105  OE1 GLU A   5      13.688  34.932 -12.251  0.00  0.00    -0.246 OA
ENDBRANCH 102 103
ENDBRANCH 101 102
ENDBRANCH   1 101
TORSDOF 43
REMARK  Name = ../refined-set-2016/2a5b/2a5b_pocket.pdb
REMARK  165 active torsions:
REMARK  status: ('A' for Active; 'I' for Inactive)
REMARK    1  A    between atoms: _1  and  _3
REMARK    2  A    between atoms: _3  and  _4
REMARK    3  A    between atoms: _3  and  _6
REMARK    4  A    between atoms: _6  and  _7
REMARK    5  A    between atoms: _12  and  _14
REMARK    6  A    between atoms: _14  and  _15
REMARK    7  A    between atoms: _14  and  _17
REMARK    8  A    between atoms: _17  and  _18
REMARK    9  A    between atoms: _21  and  _23
REMARK   10  A    between atoms: _23  and  _24
REMARK   11  A    between atoms: _23  and  _26
REMARK   12  A    between atoms: _26  and  _27
REMARK   13  A    between atoms: _30  and  _32
REMARK   14  A    between atoms: _32  and  _33
REMARK   15  A    between atoms: _32  and  _35
REMARK   16  A    between atoms: _35  and  _36
REMARK   17  A    between atoms: _38  and  _40
REMARK   18  A    between atoms: _40  and  _41
REMARK   19  A    between atoms: _40  and  _43
REMARK   20  A    between atoms: _43  and  _44
REMARK   21  A    between atoms: _49  and  _50
REMARK   22  A    between atoms: _52  and  _54
REMARK   23  A    between atoms: _54  and  _55
REMARK   24  A    between atoms: _54  and  _57
REMARK   25  A    between atoms: _57  and  _58
REMARK   26  A    between atoms: _61  and  _63
REMARK   27  A    between atoms: _63  and  _64
REMARK   28  A    between atoms: _63  and  _66
REMARK   29  A    between atoms: _66  and  _67
REMARK   30  A    between atoms: _70  and  _72
REMARK   31  A    between atoms: _72  and  _73
REMARK   32  A    between atoms: _76  and  _78
REMARK   33  A    between atoms: _78  and  _79
REMARK   34  A    between atoms: _78  and  _81
REMARK   35  A    between atoms: _79  and  _80
REMARK   36  A    between atoms: _79  and  _84
REMARK   37  A    between atoms: _80  and  _90
REMARK   38  A    between atoms: _84  and  _86
REMARK   39  A    between atoms: _86  and  _87
REMARK   40  A    between atoms: _86  and  _89
REMARK   41  A    between atoms: _93  and  _95
REMARK   42  A    between atoms: _95  and  _96
REMARK   43  A    between atoms: _95  and  _98
REMARK   44  A    between atoms: _98  and  _99
REMARK   45  A    between atoms: _99  and  _100
REMARK   46  A    between atoms: _100  and  _101
REMARK   47  A    between atoms: _101  and  _102
REMARK   48  A    between atoms: _106  and  _108
REMARK   49  A    between atoms: _108  and  _109
REMARK   50  A    between atoms: _108  and  _111
REMARK   51  A    between atoms: _111  and  _112
REMARK   52  A    between atoms: _114  and  _116
REMARK   53  A    between atoms: _116  and  _117
REMARK   54  A    between atoms: _116  and  _119
REMARK   55  A    between atoms: _122  and  _124
REMARK   56  A    between atoms: _124  and  _125
REMARK   57  A    between atoms: _124  and  _127
REMARK   58  A    between atoms: _127  and  _128
REMARK   59  A    between atoms: _138  and  _140
REMARK   60  A    between atoms: _140  and  _141
REMARK   61  A    between atoms: _140  and  _143
REMARK   62  A    between atoms: _143  and  _144
REMARK   63  A    between atoms: _144  and  _145
REMARK   64  A    between atoms: _145  and  _146
REMARK   65  A    between atoms: _146  and  _147
REMARK   66  A    between atoms: _151  and  _153
REMARK   67  A    between atoms: _153  and  _154
REMARK   68  A    between atoms: _153  and  _156
REMARK   69  A    between atoms: _156  and  _157
REMARK   70  A    between atoms: _163  and  _165
REMARK   71  A    between atoms: _165  and  _166
REMARK   72  A    between atoms: _165  and  _168
REMARK   73  A    between atoms: _168  and  _169
REMARK   74  A    between atoms: _171  and  _173
REMARK   75  A    between atoms: _173  and  _174
REMARK   76  A    between atoms: _173  and  _176
REMARK   77  A    between atoms: _176  and  _177
REMARK   78  A    between atoms: _177  and  _178
REMARK   79  A    between atoms: _181  and  _183
REMARK   80  A    between atoms: _183  and  _184
REMARK   81  A    between atoms: _183  and  _186
REMARK   82  A    between atoms: _186  and  _187
REMARK   83  A    between atoms: _189  and  _191
REMARK   84  A    between atoms: _191  and  _192
REMARK   85  A    between atoms: _191  and  _194
REMARK   86  A    between atoms: _194  and  _195
REMARK   87  A    between atoms: _198  and  _200
REMARK   88  A    between atoms: _200  and  _201
REMARK   89  A    between atoms: _200  and  _203
REMARK   90  A    between atoms: _203  and  _204
REMARK   91  A    between atoms: _207  and  _209
REMARK   92  A    between atoms: _209  and  _210
REMARK   93  A    between atoms: _209  and  _212
REMARK   94  A    between atoms: _215  and  _217
REMARK   95  A    between atoms: _217  and  _218
REMARK   96  A    between atoms: _217  and  _220
REMARK   97  A    between atoms: _220  and  _221
REMARK   98  A    between atoms: _227  and  _229
REMARK   99  A    between atoms: _229  and  _230
REMARK  100  A    between atoms: _229  and  _232
REMARK  101  A    between atoms: _232  and  _233
REMARK  102  A    between atoms: _236  and  _238
REMARK  103  A    between atoms: _238  and  _239
REMARK  104  A    between atoms: _238  and  _241
REMARK  105  A    between atoms: _241  and  _242
REMARK  106  A    between atoms: _252  and  _254
REMARK  107  A    between atoms: _254  and  _255
REMARK  108  A    between atoms: _254  and  _257
REMARK  109  A    between atoms: _257  and  _258
REMARK  110  A    between atoms: _261  and  _263
REMARK  111  A    between atoms: _263  and  _264
REMARK  112  A    between atoms: _263  and  _266
REMARK  113  A    between atoms: _266  and  _267
REMARK  114  A    between atoms: _270  and  _272
REMARK  115  A    between atoms: _272  and  _273
REMARK  116  A    between atoms: _272  and  _275
REMARK  117  A    between atoms: _275  and  _276
REMARK  118  A    between atoms: _276  and  _277
REMARK  119  A    between atoms: _277  and  _278
REMARK  120  A    between atoms: _287  and  _289
REMARK  121  A    between atoms: _289  and  _290
REMARK  122  A    between atoms: _289  and  _292
REMARK  123  A    between atoms: _292  and  _293
REMARK  124  A    between atoms: _295  and  _297
REMARK  125  A    between atoms: _297  and  _298
REMARK  126  A    between atoms: _297  and  _300
REMARK  127  A    between atoms: _300  and  _301
REMARK  128  A    between atoms: _303  and  _305
REMARK  129  A    between atoms: _305  and  _306
REMARK  130  A    between atoms: _305  and  _308
REMARK  131  A    between atoms: _308  and  _309
REMARK  132  A    between atoms: _309  and  _310
REMARK  133  A    between atoms: _310  and  _311
REMARK  134  A    between atoms: _320  and  _322
REMARK  135  A    between atoms: _322  and  _323
REMARK  136  A    between atoms: _322  and  _325
REMARK  137  A    between atoms: _328  and  _330
REMARK  138  A    between atoms: _330  and  _331
REMARK  139  A    between atoms: _333  and  _335
REMARK  140  A    between atoms: _335  and  _336
REMARK  141  A    between atoms: _335  and  _338
REMARK  142  A    between atoms: _338  and  _339
REMARK  143  A    between atoms: _342  and  _344
REMARK  144  A    between atoms: _344  and  _345
REMARK  145  A    between atoms: _344  and  _347
REMARK  146  A    between atoms: _347  and  _348
REMARK  147  A    between atoms: _353  and  _355
REMARK  148  A    between atoms: _355  and  _356
REMARK  149  A    between atoms: _355  and  _358
REMARK  150  A    between atoms: _358  and  _359
REMARK  151  A    between atoms: _365  and  _367
REMARK  152  A    between atoms: _367  and  _368
REMARK  153  A    between atoms: _367  and  _370
REMARK  154  A    between atoms: _370  and  _371
REMARK  155  A    between atoms: _376  and  _378
REMARK  156  A    between atoms: _378  and  _379
REMARK  157  A    between atoms: _378  and  _381
REMARK  158  A    between atoms: _381  and  _382
REMARK  159  A    between atoms: _392  and  _394
REMARK  160  A    between atoms: _394  and  _395
REMARK  161  A    between atoms: _394  and  _397
REMARK  162  A    between atoms: _397  and  _398
REMARK  163  A    between atoms: _398  and  _399
REMARK  164  A    between atoms: _399  and  _400
REMARK  165  A    between atoms: _400  and  _401
REMARK                            x       y       z     vdW  Elec       q    Type
REMARK                         _______ _______ _______ _____ _____    ______ ____
ROOT
ATOM      1  CA  THR A   1      -0.119  27.793   9.974  0.00  0.00    +0.160 C 
ENDROOT
BRANCH   1   2
ATOM      2  N   THR A   1      -1.221  26.938  10.366  0.00  0.00    -0.237 NA
ATOM      3  H   THR A   1      -1.963  26.676   9.685  0.00  0.00    +0.142 HD
ENDBRANCH   1   2
BRANCH   1   4
ATOM      4  C   THR A   1      -0.571  29.129   9.395  0.00  0.00    +0.227 C 
ATOM      5  O   THR A   1      -1.720  29.282   8.933  0.00  0.00    -0.287 OA
ENDBRANCH   1   4
BRANCH   1   6
ATOM      6  CB  THR A   1       0.792  27.111   8.938  0.00  0.00    +0.134 C 
ATOM      7  CG2 THR A   1       1.289  25.804   9.471  0.00  0.00    +0.034 C 
BRANCH   6   8
ATOM      8  OG1 THR A   1       0.071  26.926   7.691  0.00  0.00    -0.383 OA
ATOM      9  HG1 THR A   1      -0.724  26.358   7.852  0.00  0.00    +0.210 HD
ENDBRANCH   6   8
ENDBRANCH   1   6
TORSDOF 4
REMARK  Name = ../refined-set-2016/2a5b/2a5b_pocket.pdb
REMARK  165 active torsions:
REMARK  status: ('A' for Active; 'I' for Inactive)
REMARK    1  A    between atoms: _1  and  _3
REMARK    2  A    between atoms: _3  and  _4
REMARK    3  A    between atoms: _3  and  _6
REMARK    4  A    between atoms: _6  and  _7
REMARK    5  A    between atoms: _12  and  _14
REMARK    6  A    between atoms: _14  and  _15
REMARK    7  A    between atoms: _14  and  _17
REMARK    8  A    between atoms: _17  and  _18
REMARK    9  A    between atoms: _21  and  _23
REMARK   10  A    between atoms: _23  and  _24
REMARK   11  A    between atoms: _23  and  _26
REMARK   12  A    between atoms: _26  and  _27
REMARK   13  A    between atoms: _30  and  _32
REMARK   14  A    between atoms: _32  and  _33
REMARK   15  A    between atoms: _32  and  _35
REMARK   16  A    between atoms: _35  and  _36
REMARK   17  A    between atoms: _38  and  _40
REMARK   18  A    between atoms: _40  and  _41
REMARK   19  A    between atoms: _40  and  _43
REMARK   20  A    between atoms: _43  and  _44
REMARK   21  A    between atoms: _49  and  _50
REMARK   22  A    between atoms: _52  and  _54
REMARK   23  A    between atoms: _54  and  _55
REMARK   24  A    between atoms: _54  and  _57
REMARK   25  A    between atoms: _57  and  _58
REMARK   26  A    between atoms: _61  and  _63
REMARK   27  A    between atoms: _63  and  _64
REMARK   28  A    between atoms: _63  and  _66
REMARK   29  A    between atoms: _66  and  _67
REMARK   30  A    between atoms: _70  and  _72
REMARK   31  A    between atoms: _72  and  _73
REMARK   32  A    between atoms: _76  and  _78
REMARK   33  A    between atoms: _78  and  _79
REMARK   34  A    between atoms: _78  and  _81
REMARK   35  A    between atoms: _79  and  _80
REMARK   36  A    between atoms: _79  and  _84
REMARK   37  A    between atoms: _80  and  _90
REMARK   38  A    between atoms: _84  and  _86
REMARK   39  A    between atoms: _86  and  _87
REMARK   40  A    between atoms: _86  and  _89
REMARK   41  A    between atoms: _93  and  _95
REMARK   42  A    between atoms: _95  and  _96
REMARK   43  A    between atoms: _95  and  _98
REMARK   44  A    between atoms: _98  and  _99
REMARK   45  A    between atoms: _99  and  _100
REMARK   46  A    between atoms: _100  and  _101
REMARK   47  A    between atoms: _101  and  _102
REMARK   48  A    between atoms: _106  and  _108
REMARK   49  A    between atoms: _108  and  _109
REMARK   50  A    between atoms: _108  and  _111
REMARK   51  A    between atoms: _111  and  _112
REMARK   52  A    between atoms: _114  and  _116
REMARK   53  A    between atoms: _116  and  _117
REMARK   54  A    between atoms: _116  and  _119
REMARK   55  A    between atoms: _122  and  _124
REMARK   56  A    between atoms: _124  and  _125
REMARK   57  A    between atoms: _124  and  _127
REMARK   58  A    between atoms: _127  and  _128
REMARK   59  A    between atoms: _138  and  _140
REMARK   60  A    between atoms: _140  and  _141
REMARK   61  A    between atoms: _140  and  _143
REMARK   62  A    between atoms: _143  and  _144
REMARK   63  A    between atoms: _144  and  _145
REMARK   64  A    between atoms: _145  and  _146
REMARK   65  A    between atoms: _146  and  _147
REMARK   66  A    between atoms: _151  and  _153
REMARK   67  A    between atoms: _153  and  _154
REMARK   68  A    between atoms: _153  and  _156
REMARK   69  A    between atoms: _156  and  _157
REMARK   70  A    between atoms: _163  and  _165
REMARK   71  A    between atoms: _165  and  _166
REMARK   72  A    between atoms: _165  and  _168
REMARK   73  A    between atoms: _168  and  _169
REMARK   74  A    between atoms: _171  and  _173
REMARK   75  A    between atoms: _173  and  _174
REMARK   76  A    between atoms: _173  and  _176
REMARK   77  A    between atoms: _176  and  _177
REMARK   78  A    between atoms: _177  and  _178
REMARK   79  A    between atoms: _181  and  _183
REMARK   80  A    between atoms: _183  and  _184
REMARK   81  A    between atoms: _183  and  _186
REMARK   82  A    between atoms: _186  and  _187
REMARK   83  A    between atoms: _189  and  _191
REMARK   84  A    between atoms: _191  and  _192
REMARK   85  A    between atoms: _191  and  _194
REMARK   86  A    between atoms: _194  and  _195
REMARK   87  A    between atoms: _198  and  _200
REMARK   88  A    between atoms: _200  and  _201
REMARK   89  A    between atoms: _200  and  _203
REMARK   90  A    between atoms: _203  and  _204
REMARK   91  A    between atoms: _207  and  _209
REMARK   92  A    between atoms: _209  and  _210
REMARK   93  A    between atoms: _209  and  _212
REMARK   94  A    between atoms: _215  and  _217
REMARK   95  A    between atoms: _217  and  _218
REMARK   96  A    between atoms: _217  and  _220
REMARK   97  A    between atoms: _220  and  _221
REMARK   98  A    between atoms: _227  and  _229
REMARK   99  A    between atoms: _229  and  _230
REMARK  100  A    between atoms: _229  and  _232
REMARK  101  A    between atoms: _232  and  _233
REMARK  102  A    between atoms: _236  and  _238
REMARK  103  A    between atoms: _238  and  _239
REMARK  104  A    between atoms: _238  and  _241
REMARK  105  A    between atoms: _241  and  _242
REMARK  106  A    between atoms: _252  and  _254
REMARK  107  A    between atoms: _254  and  _255
REMARK  108  A    between atoms: _254  and  _257
REMARK  109  A    between atoms: _257  and  _258
REMARK  110  A    between atoms: _261  and  _263
REMARK  111  A    between atoms: _263  and  _264
REMARK  112  A    between atoms: _263  and  _266
REMARK  113  A    between atoms: _266  and  _267
REMARK  114  A    between atoms: _270  and  _272
REMARK  115  A    between atoms: _272  and  _273
REMARK  116  A    between atoms: _272  and  _275
REMARK  117  A    between atoms: _275  and  _276
REMARK  118  A    between atoms: _276  and  _277
REMARK  119  A    between atoms: _277  and  _278
REMARK  120  A    between atoms: _287  and  _289
REMARK  121  A    between atoms: _289  and  _290
REMARK  122  A    between atoms: _289  and  _292
REMARK  123  A    between atoms: _292  and  _293
REMARK  124  A    between atoms: _295  and  _297
REMARK  125  A    between atoms: _297  and  _298
REMARK  126  A    between atoms: _297  and  _300
REMARK  127  A    between atoms: _300  and  _301
REMARK  128  A    between atoms: _303  and  _305
REMARK  129  A    between atoms: _305  and  _306
REMARK  130  A    between atoms: _305  and  _308
REMARK  131  A    between atoms: _308  and  _309
REMARK  132  A    between atoms: _309  and  _310
REMARK  133  A    between atoms: _310  and  _311
REMARK  134  A    between atoms: _320  and  _322
REMARK  135  A    between atoms: _322  and  _323
REMARK  136  A    between atoms: _322  and  _325
REMARK  137  A    between atoms: _328  and  _330
REMARK  138  A    between atoms: _330  and  _331
REMARK  139  A    between atoms: _333  and  _335
REMARK  140  A    between atoms: _335  and  _336
REMARK  141  A    between atoms: _335  and  _338
REMARK  142  A    between atoms: _338  and  _339
REMARK  143  A    between atoms: _342  and  _344
REMARK  144  A    between atoms: _344  and  _345
REMARK  145  A    between atoms: _344  and  _347
REMARK  146  A    between atoms: _347  and  _348
REMARK  147  A    between atoms: _353  and  _355
REMARK  148  A    between atoms: _355  and  _356
REMARK  149  A    between atoms: _355  and  _358
REMARK  150  A    between atoms: _358  and  _359
REMARK  151  A    between atoms: _365  and  _367
REMARK  152  A    between atoms: _367  and  _368
REMARK  153  A    between atoms: _367  and  _370
REMARK  154  A    between atoms: _370  and  _371
REMARK  155  A    between atoms: _376  and  _378
REMARK  156  A    between atoms: _378  and  _379
REMARK  157  A    between atoms: _378  and  _381
REMARK  158  A    between atoms: _381  and  _382
REMARK  159  A    between atoms: _392  and  _394
REMARK  160  A    between atoms: _394  and  _395
REMARK  161  A    between atoms: _394  and  _397
REMARK  162  A    between atoms: _397  and  _398
REMARK  163  A    between atoms: _398  and  _399
REMARK  164  A    between atoms: _399  and  _400
REMARK  165  A    between atoms: _400  and  _401
REMARK                            x       y       z     vdW  Elec       q    Type
REMARK                         _______ _______ _______ _____ _____    ______ ____
ROOT
ATOM      1  C   LEU A   3       5.327  35.722  -0.573  0.00  0.00    +0.241 C 
ATOM      2  N   ARG A   4       6.644  35.684  -0.716  0.00  0.00    -0.297 N 
ATOM      3  H   ARG A   4       7.148  34.826  -0.415  0.00  0.00    +0.150 HD
ATOM      4  O   LEU A   3       4.662  36.678  -0.899  0.00  0.00    -0.273 OA
ENDROOT
BRANCH   2   5
ATOM      5  CA  ARG A   4       7.433  36.798  -1.281  0.00  0.00    +0.149 C 
BRANCH   5   6
ATOM      6  C   ARG A   4       7.628  36.629  -2.808  0.00  0.00    +0.241 C 
ATOM      7  O   ARG A   4       8.135  35.625  -3.275  0.00  0.00    -0.273 OA
ATOM      8  N   SER A   5       7.186  37.569  -3.608  0.00  0.00    -0.295 N 
ATOM      9  H   SER A   5       6.602  38.353  -3.254  0.00  0.00    +0.150 HD
BRANCH   8  10
ATOM     10  CA  SER A   5       7.549  37.466  -5.015  0.00  0.00    +0.178 C 
BRANCH  10  11
ATOM     11  C   SER A   5       8.818  38.283  -5.207  0.00  0.00    +0.243 C 
ATOM     12  O   SER A   5       9.160  39.140  -4.371  0.00  0.00    -0.273 OA
ATOM     13  N   SER A   6       9.512  37.989  -6.305  0.00  0.00    -0.296 N 
ATOM     14  H   SER A   6       9.236  37.159  -6.867  0.00  0.00    +0.150 HD
BRANCH  13  15
ATOM     15  CA  SER A   6      10.632  38.782  -6.739  0.00  0.00    +0.166 C 
BRANCH  15  16
ATOM     16  C   SER A   6      10.140  39.989  -7.551  0.00  0.00    +0.229 C 
ATOM     17  O   SER A   6       9.281  39.867  -8.421  0.00  0.00    -0.286 OA
ENDBRANCH  15  16
BRANCH  15  18
ATOM     18  CB  SER A   6      11.545  37.879  -7.531  0.00  0.00    +0.165 C 
BRANCH  18  19
ATOM     19  OG  SER A   6      12.150  38.595  -8.552  0.00  0.00    -0.380 OA
ATOM     20  H   SER A   6      11.454  38.963  -9.152  0.00  0.00    +0.211 HD
ENDBRANCH  18  19
ENDBRANCH  15  18
ENDBRANCH  13  15
ENDBRANCH  10  11
BRANCH  10  21
ATOM     21  CB  SER A   5       6.440  37.980  -5.937  0.00  0.00    +0.166 C 
BRANCH  21  22
ATOM     22  OG  SER A   5       5.313  37.126  -5.827  0.00  0.00    -0.380 OA
ATOM     23  H   SER A   5       4.993  37.122  -4.890  0.00  0.00    +0.211 HD
ENDBRANCH  21  22
ENDBRANCH  10  21
ENDBRANCH   8  10
ENDBRANCH   5   6
BRANCH   5  24
ATOM     24  CB  ARG A   4       8.802  36.804  -0.599  0.00  0.00    +0.033 C 
BRANCH  24  25
ATOM     25  CG  ARG A   4       9.793  37.805  -1.197  0.00  0.00    +0.045 C 
BRANCH  25  26
ATOM     26  CD  ARG A   4       9.268  39.214  -1.063  0.00  0.00    +0.174 C 
BRANCH  26  27
ATOM     27  NE  ARG A   4       9.905  40.187  -1.944  0.00  0.00    -0.265 N 
ATOM     28  CZ  ARG A   4      10.170  41.451  -1.602  0.00  0.00    +0.342 C 
ATOM     29  NH2 ARG A   4       9.918  41.894  -0.373  0.00  0.00    -0.292 N 
ATOM     30 HH21 ARG A   4       9.509  41.253   0.337  0.00  0.00    +0.255 HD
ATOM     31 HH22 ARG A   4      10.130  42.881  -0.122  0.00  0.00    +0.255 HD
ATOM     32  NH1 ARG A   4      10.686  42.279  -2.498  0.00  0.00    -0.292 N 
ATOM     33 HH11 ARG A   4      10.894  43.264  -2.237  0.00  0.00    +0.255 HD
ATOM     34 HH12 ARG A   4      10.883  41.944  -3.463  0.00  0.00    +0.255 HD
ATOM     35  HE  ARG A   4      10.170  39.876  -2.900  0.00  0.00    +0.259 HD
ENDBRANCH  26  27
ENDBRANCH  25  26
ENDBRANCH  24  25
ENDBRANCH   5  24
ENDBRANCH   2   5
BRANCH   1  36
ATOM     36  CA  LEU A   3       4.653  34.519   0.020  0.00  0.00    +0.149 C 
BRANCH  36  39
ATOM     37  C   LEU A   2       4.721  34.531   2.451  0.00  0.00    +0.241 C 
ATOM     38  O   LEU A   2       5.712  33.770   2.455  0.00  0.00    -0.273 OA
ATOM     39  N   LEU A   3       4.133  34.923   1.324  0.00  0.00    -0.297 N 
ATOM     40  H   LEU A   3       3.288  35.528   1.372  0.00  0.00    +0.150 HD
BRANCH  37  41
ATOM     41  CA  LEU A   2       4.104  34.979   3.760  0.00  0.00    +0.149 C 
BRANCH  41  44
ATOM     42  C   TRP A   1       2.626  33.447   4.994  0.00  0.00    +0.239 C 
ATOM     43  O   TRP A   1       1.687  34.176   4.920  0.00  0.00    -0.274 OA
ATOM     44  N   LEU A   2       3.839  33.779   4.549  0.00  0.00    -0.297 N 
ATOM     45  H   LEU A   2       4.637  33.151   4.776  0.00  0.00    +0.150 HD
BRANCH  42  46
ATOM     46  CA  TRP A   1       2.434  32.072   5.608  0.00  0.00    +0.149 C 
BRANCH  46  47
ATOM     47  N   TRP A   1       1.310  31.998   6.529  0.00  0.00    -0.238 NA
ATOM     48  H   TRP A   1       0.390  32.412   6.279  0.00  0.00    +0.142 HD
ENDBRANCH  46  47
BRANCH  46  49
ATOM     49  CB  TRP A   1       2.262  31.041   4.500  0.00  0.00    +0.054 C 
BRANCH  49  50
ATOM     50  CG  TRP A   1       0.953  31.031   3.772  0.00  0.00    -0.002 A 
ATOM     51  CD1 TRP A   1      -0.076  30.141   3.951  0.00  0.00    +0.068 A 
ATOM     52  NE1 TRP A   1      -1.107  30.412   3.077  0.00  0.00    -0.352 N 
ATOM     53  HE1 TRP A   1      -2.008  29.895   3.032  0.00  0.00    +0.166 HD
ATOM     54  CE2 TRP A   1      -0.761  31.462   2.282  0.00  0.00    +0.056 A 
ATOM     55  CZ2 TRP A   1      -1.463  32.072   1.240  0.00  0.00    +0.017 A 
ATOM     56  CH2 TRP A   1      -0.831  33.137   0.586  0.00  0.00    +0.001 A 
ATOM     57  CZ3 TRP A   1       0.449  33.579   0.962  0.00  0.00    +0.000 A 
ATOM     58  CE3 TRP A   1       1.151  32.955   1.988  0.00  0.00    +0.001 A 
ATOM     59  CD2 TRP A   1       0.550  31.876   2.667  0.00  0.00    +0.013 A 
ENDBRANCH  49  50
ENDBRANCH  46  49
ENDBRANCH  42  46
ENDBRANCH  41  44
BRANCH  41  60
ATOM     60  CB  LEU A   2       5.119  35.902   4.470  0.00  0.00    +0.029 C 
BRANCH  60  61
ATOM     61  CG  LEU A   2       4.728  36.622   5.778  0.00  0.00    +0.002 C 
ATOM     62  CD2 LEU A   2       5.855  37.526   6.271  0.00  0.00    +0.000 C 
ATOM     63  CD1 LEU A   2       3.503  37.466   5.555  0.00  0.00    +0.000 C 
ENDBRANCH  60  61
ENDBRANCH  41  60
ENDBRANCH  37  41
ENDBRANCH  36  39
BRANCH  36  64
ATOM     64  CB  LEU A   3       3.534  34.023  -0.897  0.00  0.00    +0.029 C 
BRANCH  64  65
ATOM     65  CG  LEU A   3       3.736  33.937  -2.454  0.00  0.00    +0.002 C 
ATOM     66  CD2 LEU A   3       4.912  33.087  -2.916  0.00  0.00    +0.000 C 
ATOM     67  CD1 LEU A   3       2.520  33.378  -3.178  0.00  0.00    +0.000 C 
ENDBRANCH  64  65
ENDBRANCH  36  64
ENDBRANCH   1  36
TORSDOF 26
REMARK  Name = ../refined-set-2016/2a5b/2a5b_pocket.pdb
REMARK  165 active torsions:
REMARK  status: ('A' for Active; 'I' for Inactive)
REMARK    1  A    between atoms: _1  and  _3
REMARK    2  A    between atoms: _3  and  _4
REMARK    3  A    between atoms: _3  and  _6
REMARK    4  A    between atoms: _6  and  _7
REMARK    5  A    between atoms: _12  and  _14
REMARK    6  A    between atoms: _14  and  _15
REMARK    7  A    between atoms: _14  and  _17
REMARK    8  A    between atoms: _17  and  _18
REMARK    9  A    between atoms: _21  and  _23
REMARK   10  A    between atoms: _23  and  _24
REMARK   11  A    between atoms: _23  and  _26
REMARK   12  A    between atoms: _26  and  _27
REMARK   13  A    between atoms: _30  and  _32
REMARK   14  A    between atoms: _32  and  _33
REMARK   15  A    between atoms: _32  and  _35
REMARK   16  A    between atoms: _35  and  _36
REMARK   17  A    between atoms: _38  and  _40
REMARK   18  A    between atoms: _40  and  _41
REMARK   19  A    between atoms: _40  and  _43
REMARK   20  A    between atoms: _43  and  _44
REMARK   21  A    between atoms: _49  and  _50
REMARK   22  A    between atoms: _52  and  _54
REMARK   23  A    between atoms: _54  and  _55
REMARK   24  A    between atoms: _54  and  _57
REMARK   25  A    between atoms: _57  and  _58
REMARK   26  A    between atoms: _61  and  _63
REMARK   27  A    between atoms: _63  and  _64
REMARK   28  A    between atoms: _63  and  _66
REMARK   29  A    between atoms: _66  and  _67
REMARK   30  A    between atoms: _70  and  _72
REMARK   31  A    between atoms: _72  and  _73
REMARK   32  A    between atoms: _76  and  _78
REMARK   33  A    between atoms: _78  and  _79
REMARK   34  A    between atoms: _78  and  _81
REMARK   35  A    between atoms: _79  and  _80
REMARK   36  A    between atoms: _79  and  _84
REMARK   37  A    between atoms: _80  and  _90
REMARK   38  A    between atoms: _84  and  _86
REMARK   39  A    between atoms: _86  and  _87
REMARK   40  A    between atoms: _86  and  _89
REMARK   41  A    between atoms: _93  and  _95
REMARK   42  A    between atoms: _95  and  _96
REMARK   43  A    between atoms: _95  and  _98
REMARK   44  A    between atoms: _98  and  _99
REMARK   45  A    between atoms: _99  and  _100
REMARK   46  A    between atoms: _100  and  _101
REMARK   47  A    between atoms: _101  and  _102
REMARK   48  A    between atoms: _106  and  _108
REMARK   49  A    between atoms: _108  and  _109
REMARK   50  A    between atoms: _108  and  _111
REMARK   51  A    between atoms: _111  and  _112
REMARK   52  A    between atoms: _114  and  _116
REMARK   53  A    between atoms: _116  and  _117
REMARK   54  A    between atoms: _116  and  _119
REMARK   55  A    between atoms: _122  and  _124
REMARK   56  A    between atoms: _124  and  _125
REMARK   57  A    between atoms: _124  and  _127
REMARK   58  A    between atoms: _127  and  _128
REMARK   59  A    between atoms: _138  and  _140
REMARK   60  A    between atoms: _140  and  _141
REMARK   61  A    between atoms: _140  and  _143
REMARK   62  A    between atoms: _143  and  _144
REMARK   63  A    between atoms: _144  and  _145
REMARK   64  A    between atoms: _145  and  _146
REMARK   65  A    between atoms: _146  and  _147
REMARK   66  A    between atoms: _151  and  _153
REMARK   67  A    between atoms: _153  and  _154
REMARK   68  A    between atoms: _153  and  _156
REMARK   69  A    between atoms: _156  and  _157
REMARK   70  A    between atoms: _163  and  _165
REMARK   71  A    between atoms: _165  and  _166
REMARK   72  A    between atoms: _165  and  _168
REMARK   73  A    between atoms: _168  and  _169
REMARK   74  A    between atoms: _171  and  _173
REMARK   75  A    between atoms: _173  and  _174
REMARK   76  A    between atoms: _173  and  _176
REMARK   77  A    between atoms: _176  and  _177
REMARK   78  A    between atoms: _177  and  _178
REMARK   79  A    between atoms: _181  and  _183
REMARK   80  A    between atoms: _183  and  _184
REMARK   81  A    between atoms: _183  and  _186
REMARK   82  A    between atoms: _186  and  _187
REMARK   83  A    between atoms: _189  and  _191
REMARK   84  A    between atoms: _191  and  _192
REMARK   85  A    between atoms: _191  and  _194
REMARK   86  A    between atoms: _194  and  _195
REMARK   87  A    between atoms: _198  and  _200
REMARK   88  A    between atoms: _200  and  _201
REMARK   89  A    between atoms: _200  and  _203
REMARK   90  A    between atoms: _203  and  _204
REMARK   91  A    between atoms: _207  and  _209
REMARK   92  A    between atoms: _209  and  _210
REMARK   93  A    between atoms: _209  and  _212
REMARK   94  A    between atoms: _215  and  _217
REMARK   95  A    between atoms: _217  and  _218
REMARK   96  A    between atoms: _217  and  _220
REMARK   97  A    between atoms: _220  and  _221
REMARK   98  A    between atoms: _227  and  _229
REMARK   99  A    between atoms: _229  and  _230
REMARK  100  A    between atoms: _229  and  _232
REMARK  101  A    between atoms: _232  and  _233
REMARK  102  A    between atoms: _236  and  _238
REMARK  103  A    between atoms: _238  and  _239
REMARK  104  A    between atoms: _238  and  _241
REMARK  105  A    between atoms: _241  and  _242
REMARK  106  A    between atoms: _252  and  _254
REMARK  107  A    between atoms: _254  and  _255
REMARK  108  A    between atoms: _254  and  _257
REMARK  109  A    between atoms: _257  and  _258
REMARK  110  A    between atoms: _261  and  _263
REMARK  111  A    between atoms: _263  and  _264
REMARK  112  A    between atoms: _263  and  _266
REMARK  113  A    between atoms: _266  and  _267
REMARK  114  A    between atoms: _270  and  _272
REMARK  115  A    between atoms: _272  and  _273
REMARK  116  A    between atoms: _272  and  _275
REMARK  117  A    between atoms: _275  and  _276
REMARK  118  A    between atoms: _276  and  _277
REMARK  119  A    between atoms: _277  and  _278
REMARK  120  A    between atoms: _287  and  _289
REMARK  121  A    between atoms: _289  and  _290
REMARK  122  A    between atoms: _289  and  _292
REMARK  123  A    between atoms: _292  and  _293
REMARK  124  A    between atoms: _295  and  _297
REMARK  125  A    between atoms: _297  and  _298
REMARK  126  A    between atoms: _297  and  _300
REMARK  127  A    between atoms: _300  and  _301
REMARK  128  A    between atoms: _303  and  _305
REMARK  129  A    between atoms: _305  and  _306
REMARK  130  A    between atoms: _305  and  _308
REMARK  131  A    between atoms: _308  and  _309
REMARK  132  A    between atoms: _309  and  _310
REMARK  133  A    between atoms: _310  and  _311
REMARK  134  A    between atoms: _320  and  _322
REMARK  135  A    between atoms: _322  and  _323
REMARK  136  A    between atoms: _322  and  _325
REMARK  137  A    between atoms: _328  and  _330
REMARK  138  A    between atoms: _330  and  _331
REMARK  139  A    between atoms: _333  and  _335
REMARK  140  A    between atoms: _335  and  _336
REMARK  141  A    between atoms: _335  and  _338
REMARK  142  A    between atoms: _338  and  _339
REMARK  143  A    between atoms: _342  and  _344
REMARK  144  A    between atoms: _344  and  _345
REMARK  145  A    between atoms: _344  and  _347
REMARK  146  A    between atoms: _347  and  _348
REMARK  147  A    between atoms: _353  and  _355
REMARK  148  A    between atoms: _355  and  _356
REMARK  149  A    between atoms: _355  and  _358
REMARK  150  A    between atoms: _358  and  _359
REMARK  151  A    between atoms: _365  and  _367
REMARK  152  A    between atoms: _367  and  _368
REMARK  153  A    between atoms: _367  and  _370
REMARK  154  A    between atoms: _370  and  _371
REMARK  155  A    between atoms: _376  and  _378
REMARK  156  A    between atoms: _378  and  _379
REMARK  157  A    between atoms: _378  and  _381
REMARK  158  A    between atoms: _381  and  _382
REMARK  159  A    between atoms: _392  and  _394
REMARK  160  A    between atoms: _394  and  _395
REMARK  161  A    between atoms: _394  and  _397
REMARK  162  A    between atoms: _397  and  _398
REMARK  163  A    between atoms: _398  and  _399
REMARK  164  A    between atoms: _399  and  _400
REMARK  165  A    between atoms: _400  and  _401
REMARK                            x       y       z     vdW  Elec       q    Type
REMARK                         _______ _______ _______ _____ _____    ______ ____
ROOT
ATOM      1  C   VAL A   2      -1.462  35.620   3.247  0.00  0.00    +0.241 C 
ATOM      2  N   GLY A   3      -1.492  34.574   4.070  0.00  0.00    -0.295 N 
ATOM      3  H   GLY A   3      -0.659  34.372   4.659  0.00  0.00    +0.150 HD
ATOM      4  O   VAL A   2      -2.377  35.839   2.449  0.00  0.00    -0.273 OA
ENDROOT
BRANCH   2   5
ATOM      5  CA  GLY A   3      -2.666  33.696   4.172  0.00  0.00    +0.176 C 
BRANCH   5   6
ATOM      6  C   GLY A   3      -2.411  32.614   5.196  0.00  0.00    +0.243 C 
ATOM      7  O   GLY A   3      -1.434  32.673   5.966  0.00  0.00    -0.273 OA
ATOM      8  N   ILE A   4      -3.274  31.609   5.201  0.00  0.00    -0.297 N 
ATOM      9  H   ILE A   4      -4.045  31.606   4.503  0.00  0.00    +0.150 HD
BRANCH   8  10
ATOM     10  CA  ILE A   4      -3.180  30.507   6.151  0.00  0.00    +0.149 C 
BRANCH  10  11
ATOM     11  C   ILE A   4      -3.079  29.171   5.444  0.00  0.00    +0.241 C 
ATOM     12  N   ASN A   5      -2.693  28.171   6.235  0.00  0.00    -0.298 N 
ATOM     13  H   ASN A   5      -2.234  28.395   7.141  0.00  0.00    +0.150 HD
ATOM     14  O   ILE A   4      -3.348  29.058   4.236  0.00  0.00    -0.273 OA
BRANCH  12  15
ATOM     15  CA  ASN A   5      -2.891  26.788   5.876  0.00  0.00    +0.146 C 
BRANCH  15  16
ATOM     16  C   ASN A   5      -3.109  25.934   7.110  0.00  0.00    +0.227 C 
ATOM     17  O   ASN A   5      -2.336  26.011   8.061  0.00  0.00    -0.286 OA
ENDBRANCH  15  16
BRANCH  15  18
ATOM     18  CB  ASN A   5      -1.738  26.276   5.034  0.00  0.00    +0.112 C 
BRANCH  18  19
ATOM     19  CG  ASN A   5      -2.031  26.395   3.574  0.00  0.00    +0.222 C 
ATOM     20  ND2 ASN A   5      -3.161  25.857   3.152  0.00  0.00    -0.329 N 
ATOM     21 HD21 ASN A   5      -3.753  25.310   3.809  0.00  0.00    +0.145 HD
ATOM     22 HD22 ASN A   5      -3.458  25.981   2.163  0.00  0.00    +0.145 HD
ATOM     23  OD1 ASN A   5      -1.308  27.041   2.845  0.00  0.00    -0.275 OA
ENDBRANCH  18  19
ENDBRANCH  15  18
ENDBRANCH  12  15
ENDBRANCH  10  11
BRANCH  10  24
ATOM     24  CB  ILE A   4      -4.436  30.420   7.101  0.00  0.00    +0.027 C 
ATOM     25  CG2 ILE A   4      -4.578  31.649   7.899  0.00  0.00    +0.002 C 
BRANCH  24  26
ATOM     26  CG1 ILE A   4      -5.712  30.176   6.290  0.00  0.00    +0.002 C 
ATOM     27  CD1 ILE A   4      -6.655  29.259   7.019  0.00  0.00    +0.000 C 
ENDBRANCH  24  26
ENDBRANCH  10  24
ENDBRANCH   8  10
ENDBRANCH   5   6
ENDBRANCH   2   5
BRANCH   1  28
ATOM     28  CA  VAL A   2      -0.230  36.564   3.335  0.00  0.00    +0.148 C 
BRANCH  28  30
ATOM     29  C   ARG A   1       1.075  37.276   1.477  0.00  0.00    +0.238 C 
ATOM     30  N   VAL A   2      -0.073  37.298   2.130  0.00  0.00    -0.297 N 
ATOM     31  H   VAL A   2      -0.868  37.857   1.759  0.00  0.00    +0.150 HD
ATOM     32  O   ARG A   1       2.106  36.729   1.913  0.00  0.00    -0.274 OA
BRANCH  29  33
ATOM     33  CA  ARG A   1       1.092  37.999   0.151  0.00  0.00    +0.145 C 
BRANCH  33  34
ATOM     34  N   ARG A   1       2.438  38.461  -0.208  0.00  0.00    -0.238 NA
ATOM     35  H   ARG A   1       3.104  37.813  -0.675  0.00  0.00    +0.142 HD
ENDBRANCH  33  34
BRANCH  33  36
ATOM     36  CB  ARG A   1       0.490  37.109  -0.900  0.00  0.00    +0.030 C 
BRANCH  36  37
ATOM     37  CG  ARG A   1       0.500  37.717  -2.266  0.00  0.00    +0.045 C 
BRANCH  37  38
ATOM     38  CD  ARG A   1       0.102  36.600  -3.140  0.00  0.00    +0.174 C 
BRANCH  38  39
ATOM     39  NE  ARG A   1      -0.254  37.102  -4.440  0.00  0.00    -0.265 N 
ATOM     40  HE  ARG A   1      -1.233  37.416  -4.599  0.00  0.00    +0.259 HD
ATOM     41  CZ  ARG A   1       0.602  37.183  -5.440  0.00  0.00    +0.342 C 
ATOM     42  NH2 ARG A   1       1.871  36.772  -5.304  0.00  0.00    -0.292 N 
ATOM     43 HH21 ARG A   1       2.196  36.380  -4.397  0.00  0.00    +0.255 HD
ATOM     44 HH22 ARG A   1       2.530  36.845  -6.105  0.00  0.00    +0.255 HD
ATOM     45  NH1 ARG A   1       0.164  37.655  -6.575  0.00  0.00    -0.292 N 
ATOM     46 HH11 ARG A   1      -0.829  37.951  -6.667  0.00  0.00    +0.255 HD
ATOM     47 HH12 ARG A   1       0.808  37.735  -7.388  0.00  0.00    +0.255 HD
ENDBRANCH  38  39
ENDBRANCH  37  38
ENDBRANCH  36  37
ENDBRANCH  33  36
ENDBRANCH  29  33
ENDBRANCH  28  30
BRANCH  28  48
ATOM     48  CB  VAL A   2      -0.342  37.524   4.530  0.00  0.00    +0.027 C 
ATOM     49  CG2 VAL A   2      -0.392  36.697   5.836  0.00  0.00    +0.002 C 
ATOM     50  CG1 VAL A   2      -1.608  38.477   4.355  0.00  0.00    +0.002 C 
ENDBRANCH  28  48
ENDBRANCH   1  28
TORSDOF 19
REMARK  Name = ../refined-set-2016/2a5b/2a5b_pocket.pdb
REMARK  165 active torsions:
REMARK  status: ('A' for Active; 'I' for Inactive)
REMARK    1  A    between atoms: _1  and  _3
REMARK    2  A    between atoms: _3  and  _4
REMARK    3  A    between atoms: _3  and  _6
REMARK    4  A    between atoms: _6  and  _7
REMARK    5  A    between atoms: _12  and  _14
REMARK    6  A    between atoms: _14  and  _15
REMARK    7  A    between atoms: _14  and  _17
REMARK    8  A    between atoms: _17  and  _18
REMARK    9  A    between atoms: _21  and  _23
REMARK   10  A    between atoms: _23  and  _24
REMARK   11  A    between atoms: _23  and  _26
REMARK   12  A    between atoms: _26  and  _27
REMARK   13  A    between atoms: _30  and  _32
REMARK   14  A    between atoms: _32  and  _33
REMARK   15  A    between atoms: _32  and  _35
REMARK   16  A    between atoms: _35  and  _36
REMARK   17  A    between atoms: _38  and  _40
REMARK   18  A    between atoms: _40  and  _41
REMARK   19  A    between atoms: _40  and  _43
REMARK   20  A    between atoms: _43  and  _44
REMARK   21  A    between atoms: _49  and  _50
REMARK   22  A    between atoms: _52  and  _54
REMARK   23  A    between atoms: _54  and  _55
REMARK   24  A    between atoms: _54  and  _57
REMARK   25  A    between atoms: _57  and  _58
REMARK   26  A    between atoms: _61  and  _63
REMARK   27  A    between atoms: _63  and  _64
REMARK   28  A    between atoms: _63  and  _66
REMARK   29  A    between atoms: _66  and  _67
REMARK   30  A    between atoms: _70  and  _72
REMARK   31  A    between atoms: _72  and  _73
REMARK   32  A    between atoms: _76  and  _78
REMARK   33  A    between atoms: _78  and  _79
REMARK   34  A    between atoms: _78  and  _81
REMARK   35  A    between atoms: _79  and  _80
REMARK   36  A    between atoms: _79  and  _84
REMARK   37  A    between atoms: _80  and  _90
REMARK   38  A    between atoms: _84  and  _86
REMARK   39  A    between atoms: _86  and  _87
REMARK   40  A    between atoms: _86  and  _89
REMARK   41  A    between atoms: _93  and  _95
REMARK   42  A    between atoms: _95  and  _96
REMARK   43  A    between atoms: _95  and  _98
REMARK   44  A    between atoms: _98  and  _99
REMARK   45  A    between atoms: _99  and  _100
REMARK   46  A    between atoms: _100  and  _101
REMARK   47  A    between atoms: _101  and  _102
REMARK   48  A    between atoms: _106  and  _108
REMARK   49  A    between atoms: _108  and  _109
REMARK   50  A    between atoms: _108  and  _111
REMARK   51  A    between atoms: _111  and  _112
REMARK   52  A    between atoms: _114  and  _116
REMARK   53  A    between atoms: _116  and  _117
REMARK   54  A    between atoms: _116  and  _119
REMARK   55  A    between atoms: _122  and  _124
REMARK   56  A    between atoms: _124  and  _125
REMARK   57  A    between atoms: _124  and  _127
REMARK   58  A    between atoms: _127  and  _128
REMARK   59  A    between atoms: _138  and  _140
REMARK   60  A    between atoms: _140  and  _141
REMARK   61  A    between atoms: _140  and  _143
REMARK   62  A    between atoms: _143  and  _144
REMARK   63  A    between atoms: _144  and  _145
REMARK   64  A    between atoms: _145  and  _146
REMARK   65  A    between atoms: _146  and  _147
REMARK   66  A    between atoms: _151  and  _153
REMARK   67  A    between atoms: _153  and  _154
REMARK   68  A    between atoms: _153  and  _156
REMARK   69  A    between atoms: _156  and  _157
REMARK   70  A    between atoms: _163  and  _165
REMARK   71  A    between atoms: _165  and  _166
REMARK   72  A    between atoms: _165  and  _168
REMARK   73  A    between atoms: _168  and  _169
REMARK   74  A    between atoms: _171  and  _173
REMARK   75  A    between atoms: _173  and  _174
REMARK   76  A    between atoms: _173  and  _176
REMARK   77  A    between atoms: _176  and  _177
REMARK   78  A    between atoms: _177  and  _178
REMARK   79  A    between atoms: _181  and  _183
REMARK   80  A    between atoms: _183  and  _184
REMARK   81  A    between atoms: _183  and  _186
REMARK   82  A    between atoms: _186  and  _187
REMARK   83  A    between atoms: _189  and  _191
REMARK   84  A    between atoms: _191  and  _192
REMARK   85  A    between atoms: _191  and  _194
REMARK   86  A    between atoms: _194  and  _195
REMARK   87  A    between atoms: _198  and  _200
REMARK   88  A    between atoms: _200  and  _201
REMARK   89  A    between atoms: _200  and  _203
REMARK   90  A    between atoms: _203  and  _204
REMARK   91  A    between atoms: _207  and  _209
REMARK   92  A    between atoms: _209  and  _210
REMARK   93  A    between atoms: _209  and  _212
REMARK   94  A    between atoms: _215  and  _217
REMARK   95  A    between atoms: _217  and  _218
REMARK   96  A    between atoms: _217  and  _220
REMARK   97  A    between atoms: _220  and  _221
REMARK   98  A    between atoms: _227  and  _229
REMARK   99  A    between atoms: _229  and  _230
REMARK  100  A    between atoms: _229  and  _232
REMARK  101  A    between atoms: _232  and  _233
REMARK  102  A    between atoms: _236  and  _238
REMARK  103  A    between atoms: _238  and  _239
REMARK  104  A    between atoms: _238  and  _241
REMARK  105  A    between atoms: _241  and  _242
REMARK  106  A    between atoms: _252  and  _254
REMARK  107  A    between atoms: _254  and  _255
REMARK  108  A    between atoms: _254  and  _257
REMARK  109  A    between atoms: _257  and  _258
REMARK  110  A    between atoms: _261  and  _263
REMARK  111  A    between atoms: _263  and  _264
REMARK  112  A    between atoms: _263  and  _266
REMARK  113  A    between atoms: _266  and  _267
REMARK  114  A    between atoms: _270  and  _272
REMARK  115  A    between atoms: _272  and  _273
REMARK  116  A    between atoms: _272  and  _275
REMARK  117  A    between atoms: _275  and  _276
REMARK  118  A    between atoms: _276  and  _277
REMARK  119  A    between atoms: _277  and  _278
REMARK  120  A    between atoms: _287  and  _289
REMARK  121  A    between atoms: _289  and  _290
REMARK  122  A    between atoms: _289  and  _292
REMARK  123  A    between atoms: _292  and  _293
REMARK  124  A    between atoms: _295  and  _297
REMARK  125  A    between atoms: _297  and  _298
REMARK  126  A    between atoms: _297  and  _300
REMARK  127  A    between atoms: _300  and  _301
REMARK  128  A    between atoms: _303  and  _305
REMARK  129  A    between atoms: _305  and  _306
REMARK  130  A    between atoms: _305  and  _308
REMARK  131  A    between atoms: _308  and  _309
REMARK  132  A    between atoms: _309  and  _310
REMARK  133  A    between atoms: _310  and  _311
REMARK  134  A    between atoms: _320  and  _322
REMARK  135  A    between atoms: _322  and  _323
REMARK  136  A    between atoms: _322  and  _325
REMARK  137  A    between atoms: _328  and  _330
REMARK  138  A    between atoms: _330  and  _331
REMARK  139  A    between atoms: _333  and  _335
REMARK  140  A    between atoms: _335  and  _336
REMARK  141  A    between atoms: _335  and  _338
REMARK  142  A    between atoms: _338  and  _339
REMARK  143  A    between atoms: _342  and  _344
REMARK  144  A    between atoms: _344  and  _345
REMARK  145  A    between atoms: _344  and  _347
REMARK  146  A    between atoms: _347  and  _348
REMARK  147  A    between atoms: _353  and  _355
REMARK  148  A    between atoms: _355  and  _356
REMARK  149  A    between atoms: _355  and  _358
REMARK  150  A    between atoms: _358  and  _359
REMARK  151  A    between atoms: _365  and  _367
REMARK  152  A    between atoms: _367  and  _368
REMARK  153  A    between atoms: _367  and  _370
REMARK  154  A    between atoms: _370  and  _371
REMARK  155  A    between atoms: _376  and  _378
REMARK  156  A    between atoms: _378  and  _379
REMARK  157  A    between atoms: _378  and  _381
REMARK  158  A    between atoms: _381  and  _382
REMARK  159  A    between atoms: _392  and  _394
REMARK  160  A    between atoms: _394  and  _395
REMARK  161  A    between atoms: _394  and  _397
REMARK  162  A    between atoms: _397  and  _398
REMARK  163  A    between atoms: _398  and  _399
REMARK  164  A    between atoms: _399  and  _400
REMARK  165  A    between atoms: _400  and  _401
REMARK                            x       y       z     vdW  Elec       q    Type
REMARK                         _______ _______ _______ _____ _____    ______ ____
ROOT
ATOM      1  CB  PHE A   1      -1.090  20.653   7.577  0.00  0.00    +0.051 C 
ENDROOT
BRANCH   1   2
ATOM      2  CG  PHE A   1      -0.439  21.570   6.602  0.00  0.00    -0.020 A 
ATOM      3  CD2 PHE A   1      -0.029  22.835   6.993  0.00  0.00    -0.004 A 
ATOM      4  CE2 PHE A   1       0.630  23.658   6.093  0.00  0.00    -0.000 A 
ATOM      5  CZ  PHE A   1       0.876  23.205   4.788  0.00  0.00    -0.000 A 
ATOM      6  CE1 PHE A   1       0.495  21.936   4.423  0.00  0.00    -0.000 A 
ATOM      7  CD1 PHE A   1      -0.150  21.133   5.306  0.00  0.00    -0.004 A 
ENDBRANCH   1   2
BRANCH   1   8
ATOM      8  CA  PHE A   1      -2.591  20.677   7.547  0.00  0.00    +0.137 C 
BRANCH   8   9
ATOM      9  N   PHE A   1      -3.068  21.977   8.036  0.00  0.00    -0.239 NA
ATOM     10  H   PHE A   1      -2.692  22.340   8.935  0.00  0.00    +0.142 HD
ENDBRANCH   8   9
BRANCH   8  11
ATOM     11  C   PHE A   1      -3.066  19.501   8.424  0.00  0.00    +0.224 C 
ATOM     12  O   PHE A   1      -2.938  19.560   9.669  0.00  0.00    -0.287 OA
ENDBRANCH   8  11
ENDBRANCH   1   8
TORSDOF 4
REMARK  Name = ../refined-set-2016/2a5b/2a5b_pocket.pdb
REMARK  165 active torsions:
REMARK  status: ('A' for Active; 'I' for Inactive)
REMARK    1  A    between atoms: _1  and  _3
REMARK    2  A    between atoms: _3  and  _4
REMARK    3  A    between atoms: _3  and  _6
REMARK    4  A    between atoms: _6  and  _7
REMARK    5  A    between atoms: _12  and  _14
REMARK    6  A    between atoms: _14  and  _15
REMARK    7  A    between atoms: _14  and  _17
REMARK    8  A    between atoms: _17  and  _18
REMARK    9  A    between atoms: _21  and  _23
REMARK   10  A    between atoms: _23  and  _24
REMARK   11  A    between atoms: _23  and  _26
REMARK   12  A    between atoms: _26  and  _27
REMARK   13  A    between atoms: _30  and  _32
REMARK   14  A    between atoms: _32  and  _33
REMARK   15  A    between atoms: _32  and  _35
REMARK   16  A    between atoms: _35  and  _36
REMARK   17  A    between atoms: _38  and  _40
REMARK   18  A    between atoms: _40  and  _41
REMARK   19  A    between atoms: _40  and  _43
REMARK   20  A    between atoms: _43  and  _44
REMARK   21  A    between atoms: _49  and  _50
REMARK   22  A    between atoms: _52  and  _54
REMARK   23  A    between atoms: _54  and  _55
REMARK   24  A    between atoms: _54  and  _57
REMARK   25  A    between atoms: _57  and  _58
REMARK   26  A    between atoms: _61  and  _63
REMARK   27  A    between atoms: _63  and  _64
REMARK   28  A    between atoms: _63  and  _66
REMARK   29  A    between atoms: _66  and  _67
REMARK   30  A    between atoms: _70  and  _72
REMARK   31  A    between atoms: _72  and  _73
REMARK   32  A    between atoms: _76  and  _78
REMARK   33  A    between atoms: _78  and  _79
REMARK   34  A    between atoms: _78  and  _81
REMARK   35  A    between atoms: _79  and  _80
REMARK   36  A    between atoms: _79  and  _84
REMARK   37  A    between atoms: _80  and  _90
REMARK   38  A    between atoms: _84  and  _86
REMARK   39  A    between atoms: _86  and  _87
REMARK   40  A    between atoms: _86  and  _89
REMARK   41  A    between atoms: _93  and  _95
REMARK   42  A    between atoms: _95  and  _96
REMARK   43  A    between atoms: _95  and  _98
REMARK   44  A    between atoms: _98  and  _99
REMARK   45  A    between atoms: _99  and  _100
REMARK   46  A    between atoms: _100  and  _101
REMARK   47  A    between atoms: _101  and  _102
REMARK   48  A    between atoms: _106  and  _108
REMARK   49  A    between atoms: _108  and  _109
REMARK   50  A    between atoms: _108  and  _111
REMARK   51  A    between atoms: _111  and  _112
REMARK   52  A    between atoms: _114  and  _116
REMARK   53  A    between atoms: _116  and  _117
REMARK   54  A    between atoms: _116  and  _119
REMARK   55  A    between atoms: _122  and  _124
REMARK   56  A    between atoms: _124  and  _125
REMARK   57  A    between atoms: _124  and  _127
REMARK   58  A    between atoms: _127  and  _128
REMARK   59  A    between atoms: _138  and  _140
REMARK   60  A    between atoms: _140  and  _141
REMARK   61  A    between atoms: _140  and  _143
REMARK   62  A    between atoms: _143  and  _144
REMARK   63  A    between atoms: _144  and  _145
REMARK   64  A    between atoms: _145  and  _146
REMARK   65  A    between atoms: _146  and  _147
REMARK   66  A    between atoms: _151  and  _153
REMARK   67  A    between atoms: _153  and  _154
REMARK   68  A    between atoms: _153  and  _156
REMARK   69  A    between atoms: _156  and  _157
REMARK   70  A    between atoms: _163  and  _165
REMARK   71  A    between atoms: _165  and  _166
REMARK   72  A    between atoms: _165  and  _168
REMARK   73  A    between atoms: _168  and  _169
REMARK   74  A    between atoms: _171  and  _173
REMARK   75  A    between atoms: _173  and  _174
REMARK   76  A    between atoms: _173  and  _176
REMARK   77  A    between atoms: _176  and  _177
REMARK   78  A    between atoms: _177  and  _178
REMARK   79  A    between atoms: _181  and  _183
REMARK   80  A    between atoms: _183  and  _184
REMARK   81  A    between atoms: _183  and  _186
REMARK   82  A    between atoms: _186  and  _187
REMARK   83  A    between atoms: _189  and  _191
REMARK   84  A    between atoms: _191  and  _192
REMARK   85  A    between atoms: _191  and  _194
REMARK   86  A    between atoms: _194  and  _195
REMARK   87  A    between atoms: _198  and  _200
REMARK   88  A    between atoms: _200  and  _201
REMARK   89  A    between atoms: _200  and  _203
REMARK   90  A    between atoms: _203  and  _204
REMARK   91  A    between atoms: _207  and  _209
REMARK   92  A    between atoms: _209  and  _210
REMARK   93  A    between atoms: _209  and  _212
REMARK   94  A    between atoms: _215  and  _217
REMARK   95  A    between atoms: _217  and  _218
REMARK   96  A    between atoms: _217  and  _220
REMARK   97  A    between atoms: _220  and  _221
REMARK   98  A    between atoms: _227  and  _229
REMARK   99  A    between atoms: _229  and  _230
REMARK  100  A    between atoms: _229  and  _232
REMARK  101  A    between atoms: _232  and  _233
REMARK  102  A    between atoms: _236  and  _238
REMARK  103  A    between atoms: _238  and  _239
REMARK  104  A    between atoms: _238  and  _241
REMARK  105  A    between atoms: _241  and  _242
REMARK  106  A    between atoms: _252  and  _254
REMARK  107  A    between atoms: _254  and  _255
REMARK  108  A    between atoms: _254  and  _257
REMARK  109  A    between atoms: _257  and  _258
REMARK  110  A    between atoms: _261  and  _263
REMARK  111  A    between atoms: _263  and  _264
REMARK  112  A    between atoms: _263  and  _266
REMARK  113  A    between atoms: _266  and  _267
REMARK  114  A    between atoms: _270  and  _272
REMARK  115  A    between atoms: _272  and  _273
REMARK  116  A    between atoms: _272  and  _275
REMARK  117  A    between atoms: _275  and  _276
REMARK  118  A    between atoms: _276  and  _277
REMARK  119  A    between atoms: _277  and  _278
REMARK  120  A    between atoms: _287  and  _289
REMARK  121  A    between atoms: _289  and  _290
REMARK  122  A    between atoms: _289  and  _292
REMARK  123  A    between atoms: _292  and  _293
REMARK  124  A    between atoms: _295  and  _297
REMARK  125  A    between atoms: _297  and  _298
REMARK  126  A    between atoms: _297  and  _300
REMARK  127  A    between atoms: _300  and  _301
REMARK  128  A    between atoms: _303  and  _305
REMARK  129  A    between atoms: _305  and  _306
REMARK  130  A    between atoms: _305  and  _308
REMARK  131  A    between atoms: _308  and  _309
REMARK  132  A    between atoms: _309  and  _310
REMARK  133  A    between atoms: _310  and  _311
REMARK  134  A    between atoms: _320  and  _322
REMARK  135  A    between atoms: _322  and  _323
REMARK  136  A    between atoms: _322  and  _325
REMARK  137  A    between atoms: _328  and  _330
REMARK  138  A    between atoms: _330  and  _331
REMARK  139  A    between atoms: _333  and  _335
REMARK  140  A    between atoms: _335  and  _336
REMARK  141  A    between atoms: _335  and  _338
REMARK  142  A    between atoms: _338  and  _339
REMARK  143  A    between atoms: _342  and  _344
REMARK  144  A    between atoms: _344  and  _345
REMARK  145  A    between atoms: _344  and  _347
REMARK  146  A    between atoms: _347  and  _348
REMARK  147  A    between atoms: _353  and  _355
REMARK  148  A    between atoms: _355  and  _356
REMARK  149  A    between atoms: _355  and  _358
REMARK  150  A    between atoms: _358  and  _359
REMARK  151  A    between atoms: _365  and  _367
REMARK  152  A    between atoms: _367  and  _368
REMARK  153  A    between atoms: _367  and  _370
REMARK  154  A    between atoms: _370  and  _371
REMARK  155  A    between atoms: _376  and  _378
REMARK  156  A    between atoms: _378  and  _379
REMARK  157  A    between atoms: _378  and  _381
REMARK  158  A    between atoms: _381  and  _382
REMARK  159  A    between atoms: _392  and  _394
REMARK  160  A    between atoms: _394  and  _395
REMARK  161  A    between atoms: _394  and  _397
REMARK  162  A    between atoms: _397  and  _398
REMARK  163  A    between atoms: _398  and  _399
REMARK  164  A    between atoms: _399  and  _400
REMARK  165  A    between atoms: _400  and  _401
REMARK                            x       y       z     vdW  Elec       q    Type
REMARK                         _______ _______ _______ _____ _____    ______ ____
ROOT
ATOM      1  CB  ASN A   1      14.690  31.928  -4.507  0.00  0.00    +0.110 C 
ENDROOT
BRANCH   1   2
ATOM      2  CG  ASN A   1      13.998  31.271  -5.641  0.00  0.00    +0.221 C 
ATOM      3  ND2 ASN A   1      12.906  30.572  -5.356  0.00  0.00    -0.329 N 
ATOM      4 HD21 ASN A   1      12.587  30.485  -4.370  0.00  0.00    +0.145 HD
ATOM      5 HD22 ASN A   1      12.369  30.112  -6.119  0.00  0.00    +0.145 HD
ATOM      6  OD1 ASN A   1      14.427  31.412  -6.786  0.00  0.00    -0.275 OA
ENDBRANCH   1   2
BRANCH   1   7
ATOM      7  CA  ASN A   1      15.925  31.181  -4.080  0.00  0.00    +0.142 C 
BRANCH   7   8
ATOM      8  N   ASN A   1      16.321  31.693  -2.802  0.00  0.00    -0.239 NA
ATOM      9  H   ASN A   1      15.836  32.524  -2.407  0.00  0.00    +0.142 HD
ENDBRANCH   7   8
BRANCH   7  10
ATOM     10  C   ASN A   1      17.045  31.315  -5.125  0.00  0.00    +0.225 C 
ATOM     11  O   ASN A   1      17.641  32.395  -5.284  0.00  0.00    -0.287 OA
ENDBRANCH   7  10
ENDBRANCH   1   7
TORSDOF 4
REMARK  Name = ../refined-set-2016/2a5b/2a5b_pocket.pdb
REMARK  165 active torsions:
REMARK  status: ('A' for Active; 'I' for Inactive)
REMARK    1  A    between atoms: _1  and  _3
REMARK    2  A    between atoms: _3  and  _4
REMARK    3  A    between atoms: _3  and  _6
REMARK    4  A    between atoms: _6  and  _7
REMARK    5  A    between atoms: _12  and  _14
REMARK    6  A    between atoms: _14  and  _15
REMARK    7  A    between atoms: _14  and  _17
REMARK    8  A    between atoms: _17  and  _18
REMARK    9  A    between atoms: _21  and  _23
REMARK   10  A    between atoms: _23  and  _24
REMARK   11  A    between atoms: _23  and  _26
REMARK   12  A    between atoms: _26  and  _27
REMARK   13  A    between atoms: _30  and  _32
REMARK   14  A    between atoms: _32  and  _33
REMARK   15  A    between atoms: _32  and  _35
REMARK   16  A    between atoms: _35  and  _36
REMARK   17  A    between atoms: _38  and  _40
REMARK   18  A    between atoms: _40  and  _41
REMARK   19  A    between atoms: _40  and  _43
REMARK   20  A    between atoms: _43  and  _44
REMARK   21  A    between atoms: _49  and  _50
REMARK   22  A    between atoms: _52  and  _54
REMARK   23  A    between atoms: _54  and  _55
REMARK   24  A    between atoms: _54  and  _57
REMARK   25  A    between atoms: _57  and  _58
REMARK   26  A    between atoms: _61  and  _63
REMARK   27  A    between atoms: _63  and  _64
REMARK   28  A    between atoms: _63  and  _66
REMARK   29  A    between atoms: _66  and  _67
REMARK   30  A    between atoms: _70  and  _72
REMARK   31  A    between atoms: _72  and  _73
REMARK   32  A    between atoms: _76  and  _78
REMARK   33  A    between atoms: _78  and  _79
REMARK   34  A    between atoms: _78  and  _81
REMARK   35  A    between atoms: _79  and  _80
REMARK   36  A    between atoms: _79  and  _84
REMARK   37  A    between atoms: _80  and  _90
REMARK   38  A    between atoms: _84  and  _86
REMARK   39  A    between atoms: _86  and  _87
REMARK   40  A    between atoms: _86  and  _89
REMARK   41  A    between atoms: _93  and  _95
REMARK   42  A    between atoms: _95  and  _96
REMARK   43  A    between atoms: _95  and  _98
REMARK   44  A    between atoms: _98  and  _99
REMARK   45  A    between atoms: _99  and  _100
REMARK   46  A    between atoms: _100  and  _101
REMARK   47  A    between atoms: _101  and  _102
REMARK   48  A    between atoms: _106  and  _108
REMARK   49  A    between atoms: _108  and  _109
REMARK   50  A    between atoms: _108  and  _111
REMARK   51  A    between atoms: _111  and  _112
REMARK   52  A    between atoms: _114  and  _116
REMARK   53  A    between atoms: _116  and  _117
REMARK   54  A    between atoms: _116  and  _119
REMARK   55  A    between atoms: _122  and  _124
REMARK   56  A    between atoms: _124  and  _125
REMARK   57  A    between atoms: _124  and  _127
REMARK   58  A    between atoms: _127  and  _128
REMARK   59  A    between atoms: _138  and  _140
REMARK   60  A    between atoms: _140  and  _141
REMARK   61  A    between atoms: _140  and  _143
REMARK   62  A    between atoms: _143  and  _144
REMARK   63  A    between atoms: _144  and  _145
REMARK   64  A    between atoms: _145  and  _146
REMARK   65  A    between atoms: _146  and  _147
REMARK   66  A    between atoms: _151  and  _153
REMARK   67  A    between atoms: _153  and  _154
REMARK   68  A    between atoms: _153  and  _156
REMARK   69  A    between atoms: _156  and  _157
REMARK   70  A    between atoms: _163  and  _165
REMARK   71  A    between atoms: _165  and  _166
REMARK   72  A    between atoms: _165  and  _168
REMARK   73  A    between atoms: _168  and  _169
REMARK   74  A    between atoms: _171  and  _173
REMARK   75  A    between atoms: _173  and  _174
REMARK   76  A    between atoms: _173  and  _176
REMARK   77  A    between atoms: _176  and  _177
REMARK   78  A    between atoms: _177  and  _178
REMARK   79  A    between atoms: _181  and  _183
REMARK   80  A    between atoms: _183  and  _184
REMARK   81  A    between atoms: _183  and  _186
REMARK   82  A    between atoms: _186  and  _187
REMARK   83  A    between atoms: _189  and  _191
REMARK   84  A    between atoms: _191  and  _192
REMARK   85  A    between atoms: _191  and  _194
REMARK   86  A    between atoms: _194  and  _195
REMARK   87  A    between atoms: _198  and  _200
REMARK   88  A    between atoms: _200  and  _201
REMARK   89  A    between atoms: _200  and  _203
REMARK   90  A    between atoms: _203  and  _204
REMARK   91  A    between atoms: _207  and  _209
REMARK   92  A    between atoms: _209  and  _210
REMARK   93  A    between atoms: _209  and  _212
REMARK   94  A    between atoms: _215  and  _217
REMARK   95  A    between atoms: _217  and  _218
REMARK   96  A    between atoms: _217  and  _220
REMARK   97  A    between atoms: _220  and  _221
REMARK   98  A    between atoms: _227  and  _229
REMARK   99  A    between atoms: _229  and  _230
REMARK  100  A    between atoms: _229  and  _232
REMARK  101  A    between atoms: _232  and  _233
REMARK  102  A    between atoms: _236  and  _238
REMARK  103  A    between atoms: _238  and  _239
REMARK  104  A    between atoms: _238  and  _241
REMARK  105  A    between atoms: _241  and  _242
REMARK  106  A    between atoms: _252  and  _254
REMARK  107  A    between atoms: _254  and  _255
REMARK  108  A    between atoms: _254  and  _257
REMARK  109  A    between atoms: _257  and  _258
REMARK  110  A    between atoms: _261  and  _263
REMARK  111  A    between atoms: _263  and  _264
REMARK  112  A    between atoms: _263  and  _266
REMARK  113  A    between atoms: _266  and  _267
REMARK  114  A    between atoms: _270  and  _272
REMARK  115  A    between atoms: _272  and  _273
REMARK  116  A    between atoms: _272  and  _275
REMARK  117  A    between atoms: _275  and  _276
REMARK  118  A    between atoms: _276  and  _277
REMARK  119  A    between atoms: _277  and  _278
REMARK  120  A    between atoms: _287  and  _289
REMARK  121  A    between atoms: _289  and  _290
REMARK  122  A    between atoms: _289  and  _292
REMARK  123  A    between atoms: _292  and  _293
REMARK  124  A    between atoms: _295  and  _297
REMARK  125  A    between atoms: _297  and  _298
REMARK  126  A    between atoms: _297  and  _300
REMARK  127  A    between atoms: _300  and  _301
REMARK  128  A    between atoms: _303  and  _305
REMARK  129  A    between atoms: _305  and  _306
REMARK  130  A    between atoms: _305  and  _308
REMARK  131  A    between atoms: _308  and  _309
REMARK  132  A    between atoms: _309  and  _310
REMARK  133  A    between atoms: _310  and  _311
REMARK  134  A    between atoms: _320  and  _322
REMARK  135  A    between atoms: _322  and  _323
REMARK  136  A    between atoms: _322  and  _325
REMARK  137  A    between atoms: _328  and  _330
REMARK  138  A    between atoms: _330  and  _331
REMARK  139  A    between atoms: _333  and  _335
REMARK  140  A    between atoms: _335  and  _336
REMARK  141  A    between atoms: _335  and  _338
REMARK  142  A    between atoms: _338  and  _339
REMARK  143  A    between atoms: _342  and  _344
REMARK  144  A    between atoms: _344  and  _345
REMARK  145  A    between atoms: _344  and  _347
REMARK  146  A    between atoms: _347  and  _348
REMARK  147  A    between atoms: _353  and  _355
REMARK  148  A    between atoms: _355  and  _356
REMARK  149  A    between atoms: _355  and  _358
REMARK  150  A    between atoms: _358  and  _359
REMARK  151  A    between atoms: _365  and  _367
REMARK  152  A    between atoms: _367  and  _368
REMARK  153  A    between atoms: _367  and  _370
REMARK  154  A    between atoms: _370  and  _371
REMARK  155  A    between atoms: _376  and  _378
REMARK  156  A    between atoms: _378  and  _379
REMARK  157  A    between atoms: _378  and  _381
REMARK  158  A    between atoms: _381  and  _382
REMARK  159  A    between atoms: _392  and  _394
REMARK  160  A    between atoms: _394  and  _395
REMARK  161  A    between atoms: _394  and  _397
REMARK  162  A    between atoms: _397  and  _398
REMARK  163  A    between atoms: _398  and  _399
REMARK  164  A    between atoms: _399  and  _400
REMARK  165  A    between atoms: _400  and  _401
REMARK                            x       y       z     vdW  Elec       q    Type
REMARK                         _______ _______ _______ _____ _____    ______ ____
ROOT
ATOM      1  C   TRP A   1      -4.541  33.212  -1.608  0.00  0.00    +0.239 C 
ATOM      2  O   TRP A   1      -3.670  33.587  -0.793  0.00  0.00    -0.274 OA
ATOM      3  N   LYS A   2      -4.588  33.682  -2.849  0.00  0.00    -0.298 N 
ATOM      4  H   LYS A   2      -5.387  33.456  -3.475  0.00  0.00    +0.150 HD
ENDROOT
BRANCH   1   5
ATOM      5  CA  TRP A   1      -5.597  32.179  -1.226  0.00  0.00    +0.149 C 
BRANCH   5   6
ATOM      6  N   TRP A   1      -6.758  32.292  -2.105  0.00  0.00    -0.238 NA
ATOM      7  H   TRP A   1      -7.024  31.494  -2.716  0.00  0.00    +0.142 HD
ENDBRANCH   5   6
BRANCH   5   8
ATOM      8  CB  TRP A   1      -5.024  30.751  -1.278  0.00  0.00    +0.054 C 
BRANCH   8   9
ATOM      9  CG  TRP A   1      -4.521  30.437  -2.632  0.00  0.00    -0.002 A 
ATOM     10  CD2 TRP A   1      -3.232  30.706  -3.130  0.00  0.00    +0.013 A 
ATOM     11  CE3 TRP A   1      -2.061  31.203  -2.559  0.00  0.00    +0.001 A 
ATOM     12  CZ3 TRP A   1      -0.903  31.307  -3.384  0.00  0.00    +0.000 A 
ATOM     13  CH2 TRP A   1      -0.945  30.915  -4.757  0.00  0.00    +0.001 A 
ATOM     14  CZ2 TRP A   1      -2.084  30.421  -5.302  0.00  0.00    +0.017 A 
ATOM     15  CE2 TRP A   1      -3.221  30.317  -4.485  0.00  0.00    +0.056 A 
ATOM     16  NE1 TRP A   1      -4.480  29.881  -4.793  0.00  0.00    -0.352 N 
ATOM     17  HE1 TRP A   1      -4.794  29.543  -5.725  0.00  0.00    +0.166 HD
ATOM     18  CD1 TRP A   1      -5.253  29.963  -3.677  0.00  0.00    +0.068 A 
ENDBRANCH   8   9
ENDBRANCH   5   8
ENDBRANCH   1   5
BRANCH   3  19
ATOM     19  CA  LYS A   2      -3.501  34.516  -3.308  0.00  0.00    +0.137 C 
BRANCH  19  20
ATOM     20  C   LYS A   2      -3.907  35.965  -3.437  0.00  0.00    +0.227 C 
ATOM     21  O   LYS A   2      -3.185  36.760  -3.970  0.00  0.00    -0.286 OA
ENDBRANCH  19  20
BRANCH  19  22
ATOM     22  CB  LYS A   2      -2.914  33.995  -4.606  0.00  0.00    +0.028 C 
BRANCH  22  23
ATOM     23  CG  LYS A   2      -3.777  34.208  -5.819  0.00  0.00    -0.000 C 
BRANCH  23  24
ATOM     24  CD  LYS A   2      -3.113  33.459  -7.003  0.00  0.00    -0.024 C 
BRANCH  24  25
ATOM     25  CE  LYS A   2      -3.908  33.545  -8.315  0.00  0.00    -0.086 C 
BRANCH  25  26
ATOM     26  NZ  LYS A   2      -3.515  32.388  -9.244  0.00  0.00    +0.380 N 
ATOM     27  HZ1 LYS A   2      -3.723  31.483  -8.776  0.00  0.00    -0.089 HD
ATOM     28  HZ2 LYS A   2      -2.498  32.445  -9.455  0.00  0.00    -0.089 HD
ATOM     29  HZ3 LYS A   2      -4.058  32.455 -10.128  0.00  0.00    -0.089 HD
ENDBRANCH  25  26
ENDBRANCH  24  25
ENDBRANCH  23  24
ENDBRANCH  22  23
ENDBRANCH  19  22
ENDBRANCH   3  19
TORSDOF 11
REMARK  Name = ../refined-set-2016/2a5b/2a5b_pocket.pdb
REMARK  165 active torsions:
REMARK  status: ('A' for Active; 'I' for Inactive)
REMARK    1  A    between atoms: _1  and  _3
REMARK    2  A    between atoms: _3  and  _4
REMARK    3  A    between atoms: _3  and  _6
REMARK    4  A    between atoms: _6  and  _7
REMARK    5  A    between atoms: _12  and  _14
REMARK    6  A    between atoms: _14  and  _15
REMARK    7  A    between atoms: _14  and  _17
REMARK    8  A    between atoms: _17  and  _18
REMARK    9  A    between atoms: _21  and  _23
REMARK   10  A    between atoms: _23  and  _24
REMARK   11  A    between atoms: _23  and  _26
REMARK   12  A    between atoms: _26  and  _27
REMARK   13  A    between atoms: _30  and  _32
REMARK   14  A    between atoms: _32  and  _33
REMARK   15  A    between atoms: _32  and  _35
REMARK   16  A    between atoms: _35  and  _36
REMARK   17  A    between atoms: _38  and  _40
REMARK   18  A    between atoms: _40  and  _41
REMARK   19  A    between atoms: _40  and  _43
REMARK   20  A    between atoms: _43  and  _44
REMARK   21  A    between atoms: _49  and  _50
REMARK   22  A    between atoms: _52  and  _54
REMARK   23  A    between atoms: _54  and  _55
REMARK   24  A    between atoms: _54  and  _57
REMARK   25  A    between atoms: _57  and  _58
REMARK   26  A    between atoms: _61  and  _63
REMARK   27  A    between atoms: _63  and  _64
REMARK   28  A    between atoms: _63  and  _66
REMARK   29  A    between atoms: _66  and  _67
REMARK   30  A    between atoms: _70  and  _72
REMARK   31  A    between atoms: _72  and  _73
REMARK   32  A    between atoms: _76  and  _78
REMARK   33  A    between atoms: _78  and  _79
REMARK   34  A    between atoms: _78  and  _81
REMARK   35  A    between atoms: _79  and  _80
REMARK   36  A    between atoms: _79  and  _84
REMARK   37  A    between atoms: _80  and  _90
REMARK   38  A    between atoms: _84  and  _86
REMARK   39  A    between atoms: _86  and  _87
REMARK   40  A    between atoms: _86  and  _89
REMARK   41  A    between atoms: _93  and  _95
REMARK   42  A    between atoms: _95  and  _96
REMARK   43  A    between atoms: _95  and  _98
REMARK   44  A    between atoms: _98  and  _99
REMARK   45  A    between atoms: _99  and  _100
REMARK   46  A    between atoms: _100  and  _101
REMARK   47  A    between atoms: _101  and  _102
REMARK   48  A    between atoms: _106  and  _108
REMARK   49  A    between atoms: _108  and  _109
REMARK   50  A    between atoms: _108  and  _111
REMARK   51  A    between atoms: _111  and  _112
REMARK   52  A    between atoms: _114  and  _116
REMARK   53  A    between atoms: _116  and  _117
REMARK   54  A    between atoms: _116  and  _119
REMARK   55  A    between atoms: _122  and  _124
REMARK   56  A    between atoms: _124  and  _125
REMARK   57  A    between atoms: _124  and  _127
REMARK   58  A    between atoms: _127  and  _128
REMARK   59  A    between atoms: _138  and  _140
REMARK   60  A    between atoms: _140  and  _141
REMARK   61  A    between atoms: _140  and  _143
REMARK   62  A    between atoms: _143  and  _144
REMARK   63  A    between atoms: _144  and  _145
REMARK   64  A    between atoms: _145  and  _146
REMARK   65  A    between atoms: _146  and  _147
REMARK   66  A    between atoms: _151  and  _153
REMARK   67  A    between atoms: _153  and  _154
REMARK   68  A    between atoms: _153  and  _156
REMARK   69  A    between atoms: _156  and  _157
REMARK   70  A    between atoms: _163  and  _165
REMARK   71  A    between atoms: _165  and  _166
REMARK   72  A    between atoms: _165  and  _168
REMARK   73  A    between atoms: _168  and  _169
REMARK   74  A    between atoms: _171  and  _173
REMARK   75  A    between atoms: _173  and  _174
REMARK   76  A    between atoms: _173  and  _176
REMARK   77  A    between atoms: _176  and  _177
REMARK   78  A    between atoms: _177  and  _178
REMARK   79  A    between atoms: _181  and  _183
REMARK   80  A    between atoms: _183  and  _184
REMARK   81  A    between atoms: _183  and  _186
REMARK   82  A    between atoms: _186  and  _187
REMARK   83  A    between atoms: _189  and  _191
REMARK   84  A    between atoms: _191  and  _192
REMARK   85  A    between atoms: _191  and  _194
REMARK   86  A    between atoms: _194  and  _195
REMARK   87  A    between atoms: _198  and  _200
REMARK   88  A    between atoms: _200  and  _201
REMARK   89  A    between atoms: _200  and  _203
REMARK   90  A    between atoms: _203  and  _204
REMARK   91  A    between atoms: _207  and  _209
REMARK   92  A    between atoms: _209  and  _210
REMARK   93  A    between atoms: _209  and  _212
REMARK   94  A    between atoms: _215  and  _217
REMARK   95  A    between atoms: _217  and  _218
REMARK   96  A    between atoms: _217  and  _220
REMARK   97  A    between atoms: _220  and  _221
REMARK   98  A    between atoms: _227  and  _229
REMARK   99  A    between atoms: _229  and  _230
REMARK  100  A    between atoms: _229  and  _232
REMARK  101  A    between atoms: _232  and  _233
REMARK  102  A    between atoms: _236  and  _238
REMARK  103  A    between atoms: _238  and  _239
REMARK  104  A    between atoms: _238  and  _241
REMARK  105  A    between atoms: _241  and  _242
REMARK  106  A    between atoms: _252  and  _254
REMARK  107  A    between atoms: _254  and  _255
REMARK  108  A    between atoms: _254  and  _257
REMARK  109  A    between atoms: _257  and  _258
REMARK  110  A    between atoms: _261  and  _263
REMARK  111  A    between atoms: _263  and  _264
REMARK  112  A    between atoms: _263  and  _266
REMARK  113  A    between atoms: _266  and  _267
REMARK  114  A    between atoms: _270  and  _272
REMARK  115  A    between atoms: _272  and  _273
REMARK  116  A    between atoms: _272  and  _275
REMARK  117  A    between atoms: _275  and  _276
REMARK  118  A    between atoms: _276  and  _277
REMARK  119  A    between atoms: _277  and  _278
REMARK  120  A    between atoms: _287  and  _289
REMARK  121  A    between atoms: _289  and  _290
REMARK  122  A    between atoms: _289  and  _292
REMARK  123  A    between atoms: _292  and  _293
REMARK  124  A    between atoms: _295  and  _297
REMARK  125  A    between atoms: _297  and  _298
REMARK  126  A    between atoms: _297  and  _300
REMARK  127  A    between atoms: _300  and  _301
REMARK  128  A    between atoms: _303  and  _305
REMARK  129  A    between atoms: _305  and  _306
REMARK  130  A    between atoms: _305  and  _308
REMARK  131  A    between atoms: _308  and  _309
REMARK  132  A    between atoms: _309  and  _310
REMARK  133  A    between atoms: _310  and  _311
REMARK  134  A    between atoms: _320  and  _322
REMARK  135  A    between atoms: _322  and  _323
REMARK  136  A    between atoms: _322  and  _325
REMARK  137  A    between atoms: _328  and  _330
REMARK  138  A    between atoms: _330  and  _331
REMARK  139  A    between atoms: _333  and  _335
REMARK  140  A    between atoms: _335  and  _336
REMARK  141  A    between atoms: _335  and  _338
REMARK  142  A    between atoms: _338  and  _339
REMARK  143  A    between atoms: _342  and  _344
REMARK  144  A    between atoms: _344  and  _345
REMARK  145  A    between atoms: _344  and  _347
REMARK  146  A    between atoms: _347  and  _348
REMARK  147  A    between atoms: _353  and  _355
REMARK  148  A    between atoms: _355  and  _356
REMARK  149  A    between atoms: _355  and  _358
REMARK  150  A    between atoms: _358  and  _359
REMARK  151  A    between atoms: _365  and  _367
REMARK  152  A    between atoms: _367  and  _368
REMARK  153  A    between atoms: _367  and  _370
REMARK  154  A    between atoms: _370  and  _371
REMARK  155  A    between atoms: _376  and  _378
REMARK  156  A    between atoms: _378  and  _379
REMARK  157  A    between atoms: _378  and  _381
REMARK  158  A    between atoms: _381  and  _382
REMARK  159  A    between atoms: _392  and  _394
REMARK  160  A    between atoms: _394  and  _395
REMARK  161  A    between atoms: _394  and  _397
REMARK  162  A    between atoms: _397  and  _398
REMARK  163  A    between atoms: _398  and  _399
REMARK  164  A    between atoms: _399  and  _400
REMARK  165  A    between atoms: _400  and  _401
REMARK                            x       y       z     vdW  Elec       q    Type
REMARK                         _______ _______ _______ _____ _____    ______ ____
ROOT
ATOM      1  O   HOH     1       8.526  35.575  -7.919  0.00  0.00    +0.000 OA
ENDROOT
TORSDOF 0
REMARK  Name = ../refined-set-2016/2a5b/2a5b_pocket.pdb
REMARK  165 active torsions:
REMARK  status: ('A' for Active; 'I' for Inactive)
REMARK    1  A    between atoms: _1  and  _3
REMARK    2  A    between atoms: _3  and  _4
REMARK    3  A    between atoms: _3  and  _6
REMARK    4  A    between atoms: _6  and  _7
REMARK    5  A    between atoms: _12  and  _14
REMARK    6  A    between atoms: _14  and  _15
REMARK    7  A    between atoms: _14  and  _17
REMARK    8  A    between atoms: _17  and  _18
REMARK    9  A    between atoms: _21  and  _23
REMARK   10  A    between atoms: _23  and  _24
REMARK   11  A    between atoms: _23  and  _26
REMARK   12  A    between atoms: _26  and  _27
REMARK   13  A    between atoms: _30  and  _32
REMARK   14  A    between atoms: _32  and  _33
REMARK   15  A    between atoms: _32  and  _35
REMARK   16  A    between atoms: _35  and  _36
REMARK   17  A    between atoms: _38  and  _40
REMARK   18  A    between atoms: _40  and  _41
REMARK   19  A    between atoms: _40  and  _43
REMARK   20  A    between atoms: _43  and  _44
REMARK   21  A    between atoms: _49  and  _50
REMARK   22  A    between atoms: _52  and  _54
REMARK   23  A    between atoms: _54  and  _55
REMARK   24  A    between atoms: _54  and  _57
REMARK   25  A    between atoms: _57  and  _58
REMARK   26  A    between atoms: _61  and  _63
REMARK   27  A    between atoms: _63  and  _64
REMARK   28  A    between atoms: _63  and  _66
REMARK   29  A    between atoms: _66  and  _67
REMARK   30  A    between atoms: _70  and  _72
REMARK   31  A    between atoms: _72  and  _73
REMARK   32  A    between atoms: _76  and  _78
REMARK   33  A    between atoms: _78  and  _79
REMARK   34  A    between atoms: _78  and  _81
REMARK   35  A    between atoms: _79  and  _80
REMARK   36  A    between atoms: _79  and  _84
REMARK   37  A    between atoms: _80  and  _90
REMARK   38  A    between atoms: _84  and  _86
REMARK   39  A    between atoms: _86  and  _87
REMARK   40  A    between atoms: _86  and  _89
REMARK   41  A    between atoms: _93  and  _95
REMARK   42  A    between atoms: _95  and  _96
REMARK   43  A    between atoms: _95  and  _98
REMARK   44  A    between atoms: _98  and  _99
REMARK   45  A    between atoms: _99  and  _100
REMARK   46  A    between atoms: _100  and  _101
REMARK   47  A    between atoms: _101  and  _102
REMARK   48  A    between atoms: _106  and  _108
REMARK   49  A    between atoms: _108  and  _109
REMARK   50  A    between atoms: _108  and  _111
REMARK   51  A    between atoms: _111  and  _112
REMARK   52  A    between atoms: _114  and  _116
REMARK   53  A    between atoms: _116  and  _117
REMARK   54  A    between atoms: _116  and  _119
REMARK   55  A    between atoms: _122  and  _124
REMARK   56  A    between atoms: _124  and  _125
REMARK   57  A    between atoms: _124  and  _127
REMARK   58  A    between atoms: _127  and  _128
REMARK   59  A    between atoms: _138  and  _140
REMARK   60  A    between atoms: _140  and  _141
REMARK   61  A    between atoms: _140  and  _143
REMARK   62  A    between atoms: _143  and  _144
REMARK   63  A    between atoms: _144  and  _145
REMARK   64  A    between atoms: _145  and  _146
REMARK   65  A    between atoms: _146  and  _147
REMARK   66  A    between atoms: _151  and  _153
REMARK   67  A    between atoms: _153  and  _154
REMARK   68  A    between atoms: _153  and  _156
REMARK   69  A    between atoms: _156  and  _157
REMARK   70  A    between atoms: _163  and  _165
REMARK   71  A    between atoms: _165  and  _166
REMARK   72  A    between atoms: _165  and  _168
REMARK   73  A    between atoms: _168  and  _169
REMARK   74  A    between atoms: _171  and  _173
REMARK   75  A    between atoms: _173  and  _174
REMARK   76  A    between atoms: _173  and  _176
REMARK   77  A    between atoms: _176  and  _177
REMARK   78  A    between atoms: _177  and  _178
REMARK   79  A    between atoms: _181  and  _183
REMARK   80  A    between atoms: _183  and  _184
REMARK   81  A    between atoms: _183  and  _186
REMARK   82  A    between atoms: _186  and  _187
REMARK   83  A    between atoms: _189  and  _191
REMARK   84  A    between atoms: _191  and  _192
REMARK   85  A    between atoms: _191  and  _194
REMARK   86  A    between atoms: _194  and  _195
REMARK   87  A    between atoms: _198  and  _200
REMARK   88  A    between atoms: _200  and  _201
REMARK   89  A    between atoms: _200  and  _203
REMARK   90  A    between atoms: _203  and  _204
REMARK   91  A    between atoms: _207  and  _209
REMARK   92  A    between atoms: _209  and  _210
REMARK   93  A    between atoms: _209  and  _212
REMARK   94  A    between atoms: _215  and  _217
REMARK   95  A    between atoms: _217  and  _218
REMARK   96  A    between atoms: _217  and  _220
REMARK   97  A    between atoms: _220  and  _221
REMARK   98  A    between atoms: _227  and  _229
REMARK   99  A    between atoms: _229  and  _230
REMARK  100  A    between atoms: _229  and  _232
REMARK  101  A    between atoms: _232  and  _233
REMARK  102  A    between atoms: _236  and  _238
REMARK  103  A    between atoms: _238  and  _239
REMARK  104  A    between atoms: _238  and  _241
REMARK  105  A    between atoms: _241  and  _242
REMARK  106  A    between atoms: _252  and  _254
REMARK  107  A    between atoms: _254  and  _255
REMARK  108  A    between atoms: _254  and  _257
REMARK  109  A    between atoms: _257  and  _258
REMARK  110  A    between atoms: _261  and  _263
REMARK  111  A    between atoms: _263  and  _264
REMARK  112  A    between atoms: _263  and  _266
REMARK  113  A    between atoms: _266  and  _267
REMARK  114  A    between atoms: _270  and  _272
REMARK  115  A    between atoms: _272  and  _273
REMARK  116  A    between atoms: _272  and  _275
REMARK  117  A    between atoms: _275  and  _276
REMARK  118  A    between atoms: _276  and  _277
REMARK  119  A    between atoms: _277  and  _278
REMARK  120  A    between atoms: _287  and  _289
REMARK  121  A    between atoms: _289  and  _290
REMARK  122  A    between atoms: _289  and  _292
REMARK  123  A    between atoms: _292  and  _293
REMARK  124  A    between atoms: _295  and  _297
REMARK  125  A    between atoms: _297  and  _298
REMARK  126  A    between atoms: _297  and  _300
REMARK  127  A    between atoms: _300  and  _301
REMARK  128  A    between atoms: _303  and  _305
REMARK  129  A    between atoms: _305  and  _306
REMARK  130  A    between atoms: _305  and  _308
REMARK  131  A    between atoms: _308  and  _309
REMARK  132  A    between atoms: _309  and  _310
REMARK  133  A    between atoms: _310  and  _311
REMARK  134  A    between atoms: _320  and  _322
REMARK  135  A    between atoms: _322  and  _323
REMARK  136  A    between atoms: _322  and  _325
REMARK  137  A    between atoms: _328  and  _330
REMARK  138  A    between atoms: _330  and  _331
REMARK  139  A    between atoms: _333  and  _335
REMARK  140  A    between atoms: _335  and  _336
REMARK  141  A    between atoms: _335  and  _338
REMARK  142  A    between atoms: _338  and  _339
REMARK  143  A    between atoms: _342  and  _344
REMARK  144  A    between atoms: _344  and  _345
REMARK  145  A    between atoms: _344  and  _347
REMARK  146  A    between atoms: _347  and  _348
REMARK  147  A    between atoms: _353  and  _355
REMARK  148  A    between atoms: _355  and  _356
REMARK  149  A    between atoms: _355  and  _358
REMARK  150  A    between atoms: _358  and  _359
REMARK  151  A    between atoms: _365  and  _367
REMARK  152  A    between atoms: _367  and  _368
REMARK  153  A    between atoms: _367  and  _370
REMARK  154  A    between atoms: _370  and  _371
REMARK  155  A    between atoms: _376  and  _378
REMARK  156  A    between atoms: _378  and  _379
REMARK  157  A    between atoms: _378  and  _381
REMARK  158  A    between atoms: _381  and  _382
REMARK  159  A    between atoms: _392  and  _394
REMARK  160  A    between atoms: _394  and  _395
REMARK  161  A    between atoms: _394  and  _397
REMARK  162  A    between atoms: _397  and  _398
REMARK  163  A    between atoms: _398  and  _399
REMARK  164  A    between atoms: _399  and  _400
REMARK  165  A    between atoms: _400  and  _401
REMARK                            x       y       z     vdW  Elec       q    Type
REMARK                         _______ _______ _______ _____ _____    ______ ____
ROOT
ATOM      1  O   HOH     1       3.689  37.608  -3.483  0.00  0.00    +0.000 OA
ENDROOT
TORSDOF 0
REMARK  Name = ../refined-set-2016/2a5b/2a5b_pocket.pdb
REMARK  165 active torsions:
REMARK  status: ('A' for Active; 'I' for Inactive)
REMARK    1  A    between atoms: _1  and  _3
REMARK    2  A    between atoms: _3  and  _4
REMARK    3  A    between atoms: _3  and  _6
REMARK    4  A    between atoms: _6  and  _7
REMARK    5  A    between atoms: _12  and  _14
REMARK    6  A    between atoms: _14  and  _15
REMARK    7  A    between atoms: _14  and  _17
REMARK    8  A    between atoms: _17  and  _18
REMARK    9  A    between atoms: _21  and  _23
REMARK   10  A    between atoms: _23  and  _24
REMARK   11  A    between atoms: _23  and  _26
REMARK   12  A    between atoms: _26  and  _27
REMARK   13  A    between atoms: _30  and  _32
REMARK   14  A    between atoms: _32  and  _33
REMARK   15  A    between atoms: _32  and  _35
REMARK   16  A    between atoms: _35  and  _36
REMARK   17  A    between atoms: _38  and  _40
REMARK   18  A    between atoms: _40  and  _41
REMARK   19  A    between atoms: _40  and  _43
REMARK   20  A    between atoms: _43  and  _44
REMARK   21  A    between atoms: _49  and  _50
REMARK   22  A    between atoms: _52  and  _54
REMARK   23  A    between atoms: _54  and  _55
REMARK   24  A    between atoms: _54  and  _57
REMARK   25  A    between atoms: _57  and  _58
REMARK   26  A    between atoms: _61  and  _63
REMARK   27  A    between atoms: _63  and  _64
REMARK   28  A    between atoms: _63  and  _66
REMARK   29  A    between atoms: _66  and  _67
REMARK   30  A    between atoms: _70  and  _72
REMARK   31  A    between atoms: _72  and  _73
REMARK   32  A    between atoms: _76  and  _78
REMARK   33  A    between atoms: _78  and  _79
REMARK   34  A    between atoms: _78  and  _81
REMARK   35  A    between atoms: _79  and  _80
REMARK   36  A    between atoms: _79  and  _84
REMARK   37  A    between atoms: _80  and  _90
REMARK   38  A    between atoms: _84  and  _86
REMARK   39  A    between atoms: _86  and  _87
REMARK   40  A    between atoms: _86  and  _89
REMARK   41  A    between atoms: _93  and  _95
REMARK   42  A    between atoms: _95  and  _96
REMARK   43  A    between atoms: _95  and  _98
REMARK   44  A    between atoms: _98  and  _99
REMARK   45  A    between atoms: _99  and  _100
REMARK   46  A    between atoms: _100  and  _101
REMARK   47  A    between atoms: _101  and  _102
REMARK   48  A    between atoms: _106  and  _108
REMARK   49  A    between atoms: _108  and  _109
REMARK   50  A    between atoms: _108  and  _111
REMARK   51  A    between atoms: _111  and  _112
REMARK   52  A    between atoms: _114  and  _116
REMARK   53  A    between atoms: _116  and  _117
REMARK   54  A    between atoms: _116  and  _119
REMARK   55  A    between atoms: _122  and  _124
REMARK   56  A    between atoms: _124  and  _125
REMARK   57  A    between atoms: _124  and  _127
REMARK   58  A    between atoms: _127  and  _128
REMARK   59  A    between atoms: _138  and  _140
REMARK   60  A    between atoms: _140  and  _141
REMARK   61  A    between atoms: _140  and  _143
REMARK   62  A    between atoms: _143  and  _144
REMARK   63  A    between atoms: _144  and  _145
REMARK   64  A    between atoms: _145  and  _146
REMARK   65  A    between atoms: _146  and  _147
REMARK   66  A    between atoms: _151  and  _153
REMARK   67  A    between atoms: _153  and  _154
REMARK   68  A    between atoms: _153  and  _156
REMARK   69  A    between atoms: _156  and  _157
REMARK   70  A    between atoms: _163  and  _165
REMARK   71  A    between atoms: _165  and  _166
REMARK   72  A    between atoms: _165  and  _168
REMARK   73  A    between atoms: _168  and  _169
REMARK   74  A    between atoms: _171  and  _173
REMARK   75  A    between atoms: _173  and  _174
REMARK   76  A    between atoms: _173  and  _176
REMARK   77  A    between atoms: _176  and  _177
REMARK   78  A    between atoms: _177  and  _178
REMARK   79  A    between atoms: _181  and  _183
REMARK   80  A    between atoms: _183  and  _184
REMARK   81  A    between atoms: _183  and  _186
REMARK   82  A    between atoms: _186  and  _187
REMARK   83  A    between atoms: _189  and  _191
REMARK   84  A    between atoms: _191  and  _192
REMARK   85  A    between atoms: _191  and  _194
REMARK   86  A    between atoms: _194  and  _195
REMARK   87  A    between atoms: _198  and  _200
REMARK   88  A    between atoms: _200  and  _201
REMARK   89  A    between atoms: _200  and  _203
REMARK   90  A    between atoms: _203  and  _204
REMARK   91  A    between atoms: _207  and  _209
REMARK   92  A    between atoms: _209  and  _210
REMARK   93  A    between atoms: _209  and  _212
REMARK   94  A    between atoms: _215  and  _217
REMARK   95  A    between atoms: _217  and  _218
REMARK   96  A    between atoms: _217  and  _220
REMARK   97  A    between atoms: _220  and  _221
REMARK   98  A    between atoms: _227  and  _229
REMARK   99  A    between atoms: _229  and  _230
REMARK  100  A    between atoms: _229  and  _232
REMARK  101  A    between atoms: _232  and  _233
REMARK  102  A    between atoms: _236  and  _238
REMARK  103  A    between atoms: _238  and  _239
REMARK  104  A    between atoms: _238  and  _241
REMARK  105  A    between atoms: _241  and  _242
REMARK  106  A    between atoms: _252  and  _254
REMARK  107  A    between atoms: _254  and  _255
REMARK  108  A    between atoms: _254  and  _257
REMARK  109  A    between atoms: _257  and  _258
REMARK  110  A    between atoms: _261  and  _263
REMARK  111  A    between atoms: _263  and  _264
REMARK  112  A    between atoms: _263  and  _266
REMARK  113  A    between atoms: _266  and  _267
REMARK  114  A    between atoms: _270  and  _272
REMARK  115  A    between atoms: _272  and  _273
REMARK  116  A    between atoms: _272  and  _275
REMARK  117  A    between atoms: _275  and  _276
REMARK  118  A    between atoms: _276  and  _277
REMARK  119  A    between atoms: _277  and  _278
REMARK  120  A    between atoms: _287  and  _289
REMARK  121  A    between atoms: _289  and  _290
REMARK  122  A    between atoms: _289  and  _292
REMARK  123  A    between atoms: _292  and  _293
REMARK  124  A    between atoms: _295  and  _297
REMARK  125  A    between atoms: _297  and  _298
REMARK  126  A    between atoms: _297  and  _300
REMARK  127  A    between atoms: _300  and  _301
REMARK  128  A    between atoms: _303  and  _305
REMARK  129  A    between atoms: _305  and  _306
REMARK  130  A    between atoms: _305  and  _308
REMARK  131  A    between atoms: _308  and  _309
REMARK  132  A    between atoms: _309  and  _310
REMARK  133  A    between atoms: _310  and  _311
REMARK  134  A    between atoms: _320  and  _322
REMARK  135  A    between atoms: _322  and  _323
REMARK  136  A    between atoms: _322  and  _325
REMARK  137  A    between atoms: _328  and  _330
REMARK  138  A    between atoms: _330  and  _331
REMARK  139  A    between atoms: _333  and  _335
REMARK  140  A    between atoms: _335  and  _336
REMARK  141  A    between atoms: _335  and  _338
REMARK  142  A    between atoms: _338  and  _339
REMARK  143  A    between atoms: _342  and  _344
REMARK  144  A    between atoms: _344  and  _345
REMARK  145  A    between atoms: _344  and  _347
REMARK  146  A    between atoms: _347  and  _348
REMARK  147  A    between atoms: _353  and  _355
REMARK  148  A    between atoms: _355  and  _356
REMARK  149  A    between atoms: _355  and  _358
REMARK  150  A    between atoms: _358  and  _359
REMARK  151  A    between atoms: _365  and  _367
REMARK  152  A    between atoms: _367  and  _368
REMARK  153  A    between atoms: _367  and  _370
REMARK  154  A    between atoms: _370  and  _371
REMARK  155  A    between atoms: _376  and  _378
REMARK  156  A    between atoms: _378  and  _379
REMARK  157  A    between atoms: _378  and  _381
REMARK  158  A    between atoms: _381  and  _382
REMARK  159  A    between atoms: _392  and  _394
REMARK  160  A    between atoms: _394  and  _395
REMARK  161  A    between atoms: _394  and  _397
REMARK  162  A    between atoms: _397  and  _398
REMARK  163  A    between atoms: _398  and  _399
REMARK  164  A    between atoms: _399  and  _400
REMARK  165  A    between atoms: _400  and  _401
REMARK                            x       y       z     vdW  Elec       q    Type
REMARK                         _______ _______ _______ _____ _____    ______ ____
ROOT
ATOM      1  O   HOH     1       1.117  33.141  -8.227  0.00  0.00    +0.000 OA
ENDROOT
TORSDOF 0
REMARK  Name = ../refined-set-2016/2a5b/2a5b_pocket.pdb
REMARK  165 active torsions:
REMARK  status: ('A' for Active; 'I' for Inactive)
REMARK    1  A    between atoms: _1  and  _3
REMARK    2  A    between atoms: _3  and  _4
REMARK    3  A    between atoms: _3  and  _6
REMARK    4  A    between atoms: _6  and  _7
REMARK    5  A    between atoms: _12  and  _14
REMARK    6  A    between atoms: _14  and  _15
REMARK    7  A    between atoms: _14  and  _17
REMARK    8  A    between atoms: _17  and  _18
REMARK    9  A    between atoms: _21  and  _23
REMARK   10  A    between atoms: _23  and  _24
REMARK   11  A    between atoms: _23  and  _26
REMARK   12  A    between atoms: _26  and  _27
REMARK   13  A    between atoms: _30  and  _32
REMARK   14  A    between atoms: _32  and  _33
REMARK   15  A    between atoms: _32  and  _35
REMARK   16  A    between atoms: _35  and  _36
REMARK   17  A    between atoms: _38  and  _40
REMARK   18  A    between atoms: _40  and  _41
REMARK   19  A    between atoms: _40  and  _43
REMARK   20  A    between atoms: _43  and  _44
REMARK   21  A    between atoms: _49  and  _50
REMARK   22  A    between atoms: _52  and  _54
REMARK   23  A    between atoms: _54  and  _55
REMARK   24  A    between atoms: _54  and  _57
REMARK   25  A    between atoms: _57  and  _58
REMARK   26  A    between atoms: _61  and  _63
REMARK   27  A    between atoms: _63  and  _64
REMARK   28  A    between atoms: _63  and  _66
REMARK   29  A    between atoms: _66  and  _67
REMARK   30  A    between atoms: _70  and  _72
REMARK   31  A    between atoms: _72  and  _73
REMARK   32  A    between atoms: _76  and  _78
REMARK   33  A    between atoms: _78  and  _79
REMARK   34  A    between atoms: _78  and  _81
REMARK   35  A    between atoms: _79  and  _80
REMARK   36  A    between atoms: _79  and  _84
REMARK   37  A    between atoms: _80  and  _90
REMARK   38  A    between atoms: _84  and  _86
REMARK   39  A    between atoms: _86  and  _87
REMARK   40  A    between atoms: _86  and  _89
REMARK   41  A    between atoms: _93  and  _95
REMARK   42  A    between atoms: _95  and  _96
REMARK   43  A    between atoms: _95  and  _98
REMARK   44  A    between atoms: _98  and  _99
REMARK   45  A    between atoms: _99  and  _100
REMARK   46  A    between atoms: _100  and  _101
REMARK   47  A    between atoms: _101  and  _102
REMARK   48  A    between atoms: _106  and  _108
REMARK   49  A    between atoms: _108  and  _109
REMARK   50  A    between atoms: _108  and  _111
REMARK   51  A    between atoms: _111  and  _112
REMARK   52  A    between atoms: _114  and  _116
REMARK   53  A    between atoms: _116  and  _117
REMARK   54  A    between atoms: _116  and  _119
REMARK   55  A    between atoms: _122  and  _124
REMARK   56  A    between atoms: _124  and  _125
REMARK   57  A    between atoms: _124  and  _127
REMARK   58  A    between atoms: _127  and  _128
REMARK   59  A    between atoms: _138  and  _140
REMARK   60  A    between atoms: _140  and  _141
REMARK   61  A    between atoms: _140  and  _143
REMARK   62  A    between atoms: _143  and  _144
REMARK   63  A    between atoms: _144  and  _145
REMARK   64  A    between atoms: _145  and  _146
REMARK   65  A    between atoms: _146  and  _147
REMARK   66  A    between atoms: _151  and  _153
REMARK   67  A    between atoms: _153  and  _154
REMARK   68  A    between atoms: _153  and  _156
REMARK   69  A    between atoms: _156  and  _157
REMARK   70  A    between atoms: _163  and  _165
REMARK   71  A    between atoms: _165  and  _166
REMARK   72  A    between atoms: _165  and  _168
REMARK   73  A    between atoms: _168  and  _169
REMARK   74  A    between atoms: _171  and  _173
REMARK   75  A    between atoms: _173  and  _174
REMARK   76  A    between atoms: _173  and  _176
REMARK   77  A    between atoms: _176  and  _177
REMARK   78  A    between atoms: _177  and  _178
REMARK   79  A    between atoms: _181  and  _183
REMARK   80  A    between atoms: _183  and  _184
REMARK   81  A    between atoms: _183  and  _186
REMARK   82  A    between atoms: _186  and  _187
REMARK   83  A    between atoms: _189  and  _191
REMARK   84  A    between atoms: _191  and  _192
REMARK   85  A    between atoms: _191  and  _194
REMARK   86  A    between atoms: _194  and  _195
REMARK   87  A    between atoms: _198  and  _200
REMARK   88  A    between atoms: _200  and  _201
REMARK   89  A    between atoms: _200  and  _203
REMARK   90  A    between atoms: _203  and  _204
REMARK   91  A    between atoms: _207  and  _209
REMARK   92  A    between atoms: _209  and  _210
REMARK   93  A    between atoms: _209  and  _212
REMARK   94  A    between atoms: _215  and  _217
REMARK   95  A    between atoms: _217  and  _218
REMARK   96  A    between atoms: _217  and  _220
REMARK   97  A    between atoms: _220  and  _221
REMARK   98  A    between atoms: _227  and  _229
REMARK   99  A    between atoms: _229  and  _230
REMARK  100  A    between atoms: _229  and  _232
REMARK  101  A    between atoms: _232  and  _233
REMARK  102  A    between atoms: _236  and  _238
REMARK  103  A    between atoms: _238  and  _239
REMARK  104  A    between atoms: _238  and  _241
REMARK  105  A    between atoms: _241  and  _242
REMARK  106  A    between atoms: _252  and  _254
REMARK  107  A    between atoms: _254  and  _255
REMARK  108  A    between atoms: _254  and  _257
REMARK  109  A    between atoms: _257  and  _258
REMARK  110  A    between atoms: _261  and  _263
REMARK  111  A    between atoms: _263  and  _264
REMARK  112  A    between atoms: _263  and  _266
REMARK  113  A    between atoms: _266  and  _267
REMARK  114  A    between atoms: _270  and  _272
REMARK  115  A    between atoms: _272  and  _273
REMARK  116  A    between atoms: _272  and  _275
REMARK  117  A    between atoms: _275  and  _276
REMARK  118  A    between atoms: _276  and  _277
REMARK  119  A    between atoms: _277  and  _278
REMARK  120  A    between atoms: _287  and  _289
REMARK  121  A    between atoms: _289  and  _290
REMARK  122  A    between atoms: _289  and  _292
REMARK  123  A    between atoms: _292  and  _293
REMARK  124  A    between atoms: _295  and  _297
REMARK  125  A    between atoms: _297  and  _298
REMARK  126  A    between atoms: _297  and  _300
REMARK  127  A    between atoms: _300  and  _301
REMARK  128  A    between atoms: _303  and  _305
REMARK  129  A    between atoms: _305  and  _306
REMARK  130  A    between atoms: _305  and  _308
REMARK  131  A    between atoms: _308  and  _309
REMARK  132  A    between atoms: _309  and  _310
REMARK  133  A    between atoms: _310  and  _311
REMARK  134  A    between atoms: _320  and  _322
REMARK  135  A    between atoms: _322  and  _323
REMARK  136  A    between atoms: _322  and  _325
REMARK  137  A    between atoms: _328  and  _330
REMARK  138  A    between atoms: _330  and  _331
REMARK  139  A    between atoms: _333  and  _335
REMARK  140  A    between atoms: _335  and  _336
REMARK  141  A    between atoms: _335  and  _338
REMARK  142  A    between atoms: _338  and  _339
REMARK  143  A    between atoms: _342  and  _344
REMARK  144  A    between atoms: _344  and  _345
REMARK  145  A    between atoms: _344  and  _347
REMARK  146  A    between atoms: _347  and  _348
REMARK  147  A    between atoms: _353  and  _355
REMARK  148  A    between atoms: _355  and  _356
REMARK  149  A    between atoms: _355  and  _358
REMARK  150  A    between atoms: _358  and  _359
REMARK  151  A    between atoms: _365  and  _367
REMARK  152  A    between atoms: _367  and  _368
REMARK  153  A    between atoms: _367  and  _370
REMARK  154  A    between atoms: _370  and  _371
REMARK  155  A    between atoms: _376  and  _378
REMARK  156  A    between atoms: _378  and  _379
REMARK  157  A    between atoms: _378  and  _381
REMARK  158  A    between atoms: _381  and  _382
REMARK  159  A    between atoms: _392  and  _394
REMARK  160  A    between atoms: _394  and  _395
REMARK  161  A    between atoms: _394  and  _397
REMARK  162  A    between atoms: _397  and  _398
REMARK  163  A    between atoms: _398  and  _399
REMARK  164  A    between atoms: _399  and  _400
REMARK  165  A    between atoms: _400  and  _401
REMARK                            x       y       z     vdW  Elec       q    Type
REMARK                         _______ _______ _______ _____ _____    ______ ____
ROOT
ATOM      1  O   HOH     1       0.296  28.915  -8.125  0.00  0.00    +0.000 OA
ENDROOT
TORSDOF 0
