REMARK  Name = ../refined-set-2016/3t3c/3t3c_pocket.pdb
REMARK  204 active torsions:
REMARK  status: ('A' for Active; 'I' for Inactive)
REMARK    1  A    between atoms: _1  and  _3
REMARK    2  A    between atoms: _3  and  _4
REMARK    3  A    between atoms: _3  and  _6
REMARK    4  A    between atoms: _6  and  _7
REMARK    5  A    between atoms: _7  and  _8
REMARK    6  A    between atoms: _8  and  _9
REMARK    7  A    between atoms: _18  and  _20
REMARK    8  A    between atoms: _20  and  _21
REMARK    9  A    between atoms: _20  and  _23
REMARK   10  A    between atoms: _23  and  _24
REMARK   11  A    between atoms: _27  and  _29
REMARK   12  A    between atoms: _29  and  _30
REMARK   13  A    between atoms: _29  and  _32
REMARK   14  A    between atoms: _32  and  _33
REMARK   15  A    between atoms: _36  and  _38
REMARK   16  A    between atoms: _38  and  _39
REMARK   17  A    between atoms: _38  and  _41
REMARK   18  A    between atoms: _41  and  _42
REMARK   19  A    between atoms: _45  and  _47
REMARK   20  A    between atoms: _47  and  _48
REMARK   21  A    between atoms: _47  and  _50
REMARK   22  A    between atoms: _50  and  _51
REMARK   23  A    between atoms: _54  and  _56
REMARK   24  A    between atoms: _56  and  _57
REMARK   25  A    between atoms: _59  and  _61
REMARK   26  A    between atoms: _61  and  _62
REMARK   27  A    between atoms: _65  and  _67
REMARK   28  A    between atoms: _67  and  _68
REMARK   29  A    between atoms: _67  and  _70
REMARK   30  A    between atoms: _70  and  _71
REMARK   31  A    between atoms: _74  and  _76
REMARK   32  A    between atoms: _76  and  _77
REMARK   33  A    between atoms: _76  and  _79
REMARK   34  A    between atoms: _79  and  _80
REMARK   35  A    between atoms: _83  and  _85
REMARK   36  A    between atoms: _85  and  _86
REMARK   37  A    between atoms: _85  and  _88
REMARK   38  A    between atoms: _88  and  _89
REMARK   39  A    between atoms: _92  and  _94
REMARK   40  A    between atoms: _94  and  _95
REMARK   41  A    between atoms: _94  and  _97
REMARK   42  A    between atoms: _100  and  _102
REMARK   43  A    between atoms: _102  and  _103
REMARK   44  A    between atoms: _102  and  _105
REMARK   45  A    between atoms: _105  and  _106
REMARK   46  A    between atoms: _109  and  _111
REMARK   47  A    between atoms: _111  and  _112
REMARK   48  A    between atoms: _115  and  _117
REMARK   49  A    between atoms: _117  and  _118
REMARK   50  A    between atoms: _120  and  _122
REMARK   51  A    between atoms: _122  and  _123
REMARK   52  A    between atoms: _122  and  _125
REMARK   53  A    between atoms: _125  and  _126
REMARK   54  A    between atoms: _129  and  _131
REMARK   55  A    between atoms: _131  and  _132
REMARK   56  A    between atoms: _134  and  _136
REMARK   57  A    between atoms: _136  and  _137
REMARK   58  A    between atoms: _139  and  _141
REMARK   59  A    between atoms: _141  and  _142
REMARK   60  A    between atoms: _141  and  _144
REMARK   61  A    between atoms: _147  and  _149
REMARK   62  A    between atoms: _149  and  _150
REMARK   63  A    between atoms: _149  and  _152
REMARK   64  A    between atoms: _152  and  _153
REMARK   65  A    between atoms: _156  and  _158
REMARK   66  A    between atoms: _158  and  _159
REMARK   67  A    between atoms: _158  and  _161
REMARK   68  A    between atoms: _161  and  _162
REMARK   69  A    between atoms: _166  and  _167
REMARK   70  A    between atoms: _172  and  _174
REMARK   71  A    between atoms: _174  and  _175
REMARK   72  A    between atoms: _178  and  _180
REMARK   73  A    between atoms: _180  and  _181
REMARK   74  A    between atoms: _180  and  _183
REMARK   75  A    between atoms: _183  and  _184
REMARK   76  A    between atoms: _189  and  _191
REMARK   77  A    between atoms: _191  and  _192
REMARK   78  A    between atoms: _191  and  _194
REMARK   79  A    between atoms: _197  and  _199
REMARK   80  A    between atoms: _199  and  _200
REMARK   81  A    between atoms: _199  and  _202
REMARK   82  A    between atoms: _202  and  _203
REMARK   83  A    between atoms: _206  and  _208
REMARK   84  A    between atoms: _208  and  _209
REMARK   85  A    between atoms: _211  and  _213
REMARK   86  A    between atoms: _213  and  _214
REMARK   87  A    between atoms: _213  and  _216
REMARK   88  A    between atoms: _216  and  _217
REMARK   89  A    between atoms: _217  and  _218
REMARK   90  A    between atoms: _218  and  _219
REMARK   91  A    between atoms: _228  and  _230
REMARK   92  A    between atoms: _230  and  _231
REMARK   93  A    between atoms: _230  and  _233
REMARK   94  A    between atoms: _233  and  _234
REMARK   95  A    between atoms: _239  and  _241
REMARK   96  A    between atoms: _241  and  _242
REMARK   97  A    between atoms: _241  and  _244
REMARK   98  A    between atoms: _244  and  _245
REMARK   99  A    between atoms: _245  and  _246
REMARK  100  A    between atoms: _246  and  _247
REMARK  101  A    between atoms: _256  and  _258
REMARK  102  A    between atoms: _258  and  _259
REMARK  103  A    between atoms: _258  and  _261
REMARK  104  A    between atoms: _261  and  _262
REMARK  105  A    between atoms: _265  and  _267
REMARK  106  A    between atoms: _267  and  _268
REMARK  107  A    between atoms: _267  and  _270
REMARK  108  A    between atoms: _270  and  _271
REMARK  109  A    between atoms: _274  and  _276
REMARK  110  A    between atoms: _276  and  _277
REMARK  111  A    between atoms: _276  and  _279
REMARK  112  A    between atoms: _279  and  _280
REMARK  113  A    between atoms: _283  and  _285
REMARK  114  A    between atoms: _285  and  _286
REMARK  115  A    between atoms: _285  and  _288
REMARK  116  A    between atoms: _288  and  _289
REMARK  117  A    between atoms: _292  and  _294
REMARK  118  A    between atoms: _294  and  _295
REMARK  119  A    between atoms: _297  and  _299
REMARK  120  A    between atoms: _299  and  _300
REMARK  121  A    between atoms: _303  and  _305
REMARK  122  A    between atoms: _305  and  _306
REMARK  123  A    between atoms: _305  and  _308
REMARK  124  A    between atoms: _308  and  _309
REMARK  125  A    between atoms: _312  and  _314
REMARK  126  A    between atoms: _314  and  _315
REMARK  127  A    between atoms: _314  and  _317
REMARK  128  A    between atoms: _317  and  _318
REMARK  129  A    between atoms: _321  and  _323
REMARK  130  A    between atoms: _323  and  _324
REMARK  131  A    between atoms: _323  and  _326
REMARK  132  A    between atoms: _326  and  _327
REMARK  133  A    between atoms: _330  and  _332
REMARK  134  A    between atoms: _332  and  _333
REMARK  135  A    between atoms: _332  and  _335
REMARK  136  A    between atoms: _338  and  _340
REMARK  137  A    between atoms: _340  and  _341
REMARK  138  A    between atoms: _340  and  _343
REMARK  139  A    between atoms: _343  and  _344
REMARK  140  A    between atoms: _347  and  _349
REMARK  141  A    between atoms: _349  and  _350
REMARK  142  A    between atoms: _349  and  _352
REMARK  143  A    between atoms: _352  and  _353
REMARK  144  A    between atoms: _353  and  _354
REMARK  145  A    between atoms: _356  and  _358
REMARK  146  A    between atoms: _358  and  _359
REMARK  147  A    between atoms: _358  and  _361
REMARK  148  A    between atoms: _361  and  _362
REMARK  149  A    between atoms: _365  and  _367
REMARK  150  A    between atoms: _367  and  _368
REMARK  151  A    between atoms: _371  and  _373
REMARK  152  A    between atoms: _373  and  _374
REMARK  153  A    between atoms: _376  and  _378
REMARK  154  A    between atoms: _378  and  _379
REMARK  155  A    between atoms: _378  and  _381
REMARK  156  A    between atoms: _381  and  _382
REMARK  157  A    between atoms: _385  and  _387
REMARK  158  A    between atoms: _387  and  _388
REMARK  159  A    between atoms: _390  and  _392
REMARK  160  A    between atoms: _392  and  _393
REMARK  161  A    between atoms: _395  and  _397
REMARK  162  A    between atoms: _397  and  _398
REMARK  163  A    between atoms: _397  and  _400
REMARK  164  A    between atoms: _400  and  _401
REMARK  165  A    between atoms: _407  and  _409
REMARK  166  A    between atoms: _409  and  _410
REMARK  167  A    between atoms: _409  and  _412
REMARK  168  A    between atoms: _415  and  _417
REMARK  169  A    between atoms: _417  and  _418
REMARK  170  A    between atoms: _417  and  _420
REMARK  171  A    between atoms: _423  and  _425
REMARK  172  A    between atoms: _425  and  _426
REMARK  173  A    between atoms: _425  and  _428
REMARK  174  A    between atoms: _428  and  _429
REMARK  175  A    between atoms: _432  and  _434
REMARK  176  A    between atoms: _434  and  _435
REMARK  177  A    between atoms: _434  and  _437
REMARK  178  A    between atoms: _437  and  _438
REMARK  179  A    between atoms: _442  and  _443
REMARK  180  A    between atoms: _448  and  _450
REMARK  181  A    between atoms: _450  and  _451
REMARK  182  A    between atoms: _454  and  _456
REMARK  183  A    between atoms: _456  and  _457
REMARK  184  A    between atoms: _456  and  _459
REMARK  185  A    between atoms: _459  and  _460
REMARK  186  A    between atoms: _465  and  _467
REMARK  187  A    between atoms: _467  and  _468
REMARK  188  A    between atoms: _467  and  _470
REMARK  189  A    between atoms: _473  and  _475
REMARK  190  A    between atoms: _475  and  _476
REMARK  191  A    between atoms: _475  and  _478
REMARK  192  A    between atoms: _478  and  _479
REMARK  193  A    between atoms: _482  and  _484
REMARK  194  A    between atoms: _484  and  _485
REMARK  195  A    between atoms: _487  and  _489
REMARK  196  A    between atoms: _489  and  _490
REMARK  197  A    between atoms: _489  and  _492
REMARK  198  A    between atoms: _492  and  _493
REMARK  199  A    between atoms: _493  and  _494
REMARK  200  A    between atoms: _494  and  _495
REMARK  201  A    between atoms: _504  and  _506
REMARK  202  A    between atoms: _506  and  _507
REMARK  203  A    between atoms: _506  and  _509
REMARK  204  A    between atoms: _509  and  _510
REMARK                            x       y       z     vdW  Elec       q    Type
REMARK                         _______ _______ _______ _____ _____    ______ ____
ROOT
ATOM      1  NE  ARG A   1      -5.318 -10.105 -12.476  0.00  0.00    -0.265 N 
ATOM      2  CZ  ARG A   1      -6.124 -11.116 -12.816  0.00  0.00    +0.342 C 
ATOM      3  NH2 ARG A   1      -6.262 -12.175 -12.021  0.00  0.00    -0.292 N 
ATOM      4 HH21 ARG A   1      -5.739 -12.223 -11.123  0.00  0.00    +0.255 HD
ATOM      5 HH22 ARG A   1      -6.892 -12.954 -12.298  0.00  0.00    +0.255 HD
ATOM      6  NH1 ARG A   1      -6.798 -11.065 -13.965  0.00  0.00    -0.292 N 
ATOM      7 HH11 ARG A   1      -7.426 -11.849 -14.234  0.00  0.00    +0.255 HD
ATOM      8 HH12 ARG A   1      -6.695 -10.242 -14.592  0.00  0.00    +0.255 HD
ATOM      9  HE  ARG A   1      -5.253  -9.304 -13.136  0.00  0.00    +0.259 HD
ENDROOT
BRANCH   1  10
ATOM     10  CD  ARG A   1      -4.519 -10.034 -11.249  0.00  0.00    +0.174 C 
BRANCH  10  11
ATOM     11  CG  ARG A   1      -4.665  -8.714 -10.491  0.00  0.00    +0.045 C 
BRANCH  11  12
ATOM     12  CB  ARG A   1      -6.125  -8.396 -10.193  0.00  0.00    +0.029 C 
BRANCH  12  13
ATOM     13  CA  ARG A   1      -6.348  -7.192  -9.276  0.00  0.00    +0.133 C 
BRANCH  13  14
ATOM     14  N   ARG A   1      -5.789  -7.441  -7.942  0.00  0.00    -0.239 NA
ATOM     15  H   ARG A   1      -5.273  -8.327  -7.771  0.00  0.00    +0.142 HD
ENDBRANCH  13  14
BRANCH  13  16
ATOM     16  C   ARG A   1      -7.843  -6.920  -9.163  0.00  0.00    +0.224 C 
ATOM     17  O   ARG A   1      -8.556  -7.678  -8.495  0.00  0.00    -0.287 OA
ENDBRANCH  13  16
ENDBRANCH  12  13
ENDBRANCH  11  12
ENDBRANCH  10  11
ENDBRANCH   1  10
TORSDOF 6
REMARK  Name = ../refined-set-2016/3t3c/3t3c_pocket.pdb
REMARK  204 active torsions:
REMARK  status: ('A' for Active; 'I' for Inactive)
REMARK    1  A    between atoms: _1  and  _3
REMARK    2  A    between atoms: _3  and  _4
REMARK    3  A    between atoms: _3  and  _6
REMARK    4  A    between atoms: _6  and  _7
REMARK    5  A    between atoms: _7  and  _8
REMARK    6  A    between atoms: _8  and  _9
REMARK    7  A    between atoms: _18  and  _20
REMARK    8  A    between atoms: _20  and  _21
REMARK    9  A    between atoms: _20  and  _23
REMARK   10  A    between atoms: _23  and  _24
REMARK   11  A    between atoms: _27  and  _29
REMARK   12  A    between atoms: _29  and  _30
REMARK   13  A    between atoms: _29  and  _32
REMARK   14  A    between atoms: _32  and  _33
REMARK   15  A    between atoms: _36  and  _38
REMARK   16  A    between atoms: _38  and  _39
REMARK   17  A    between atoms: _38  and  _41
REMARK   18  A    between atoms: _41  and  _42
REMARK   19  A    between atoms: _45  and  _47
REMARK   20  A    between atoms: _47  and  _48
REMARK   21  A    between atoms: _47  and  _50
REMARK   22  A    between atoms: _50  and  _51
REMARK   23  A    between atoms: _54  and  _56
REMARK   24  A    between atoms: _56  and  _57
REMARK   25  A    between atoms: _59  and  _61
REMARK   26  A    between atoms: _61  and  _62
REMARK   27  A    between atoms: _65  and  _67
REMARK   28  A    between atoms: _67  and  _68
REMARK   29  A    between atoms: _67  and  _70
REMARK   30  A    between atoms: _70  and  _71
REMARK   31  A    between atoms: _74  and  _76
REMARK   32  A    between atoms: _76  and  _77
REMARK   33  A    between atoms: _76  and  _79
REMARK   34  A    between atoms: _79  and  _80
REMARK   35  A    between atoms: _83  and  _85
REMARK   36  A    between atoms: _85  and  _86
REMARK   37  A    between atoms: _85  and  _88
REMARK   38  A    between atoms: _88  and  _89
REMARK   39  A    between atoms: _92  and  _94
REMARK   40  A    between atoms: _94  and  _95
REMARK   41  A    between atoms: _94  and  _97
REMARK   42  A    between atoms: _100  and  _102
REMARK   43  A    between atoms: _102  and  _103
REMARK   44  A    between atoms: _102  and  _105
REMARK   45  A    between atoms: _105  and  _106
REMARK   46  A    between atoms: _109  and  _111
REMARK   47  A    between atoms: _111  and  _112
REMARK   48  A    between atoms: _115  and  _117
REMARK   49  A    between atoms: _117  and  _118
REMARK   50  A    between atoms: _120  and  _122
REMARK   51  A    between atoms: _122  and  _123
REMARK   52  A    between atoms: _122  and  _125
REMARK   53  A    between atoms: _125  and  _126
REMARK   54  A    between atoms: _129  and  _131
REMARK   55  A    between atoms: _131  and  _132
REMARK   56  A    between atoms: _134  and  _136
REMARK   57  A    between atoms: _136  and  _137
REMARK   58  A    between atoms: _139  and  _141
REMARK   59  A    between atoms: _141  and  _142
REMARK   60  A    between atoms: _141  and  _144
REMARK   61  A    between atoms: _147  and  _149
REMARK   62  A    between atoms: _149  and  _150
REMARK   63  A    between atoms: _149  and  _152
REMARK   64  A    between atoms: _152  and  _153
REMARK   65  A    between atoms: _156  and  _158
REMARK   66  A    between atoms: _158  and  _159
REMARK   67  A    between atoms: _158  and  _161
REMARK   68  A    between atoms: _161  and  _162
REMARK   69  A    between atoms: _166  and  _167
REMARK   70  A    between atoms: _172  and  _174
REMARK   71  A    between atoms: _174  and  _175
REMARK   72  A    between atoms: _178  and  _180
REMARK   73  A    between atoms: _180  and  _181
REMARK   74  A    between atoms: _180  and  _183
REMARK   75  A    between atoms: _183  and  _184
REMARK   76  A    between atoms: _189  and  _191
REMARK   77  A    between atoms: _191  and  _192
REMARK   78  A    between atoms: _191  and  _194
REMARK   79  A    between atoms: _197  and  _199
REMARK   80  A    between atoms: _199  and  _200
REMARK   81  A    between atoms: _199  and  _202
REMARK   82  A    between atoms: _202  and  _203
REMARK   83  A    between atoms: _206  and  _208
REMARK   84  A    between atoms: _208  and  _209
REMARK   85  A    between atoms: _211  and  _213
REMARK   86  A    between atoms: _213  and  _214
REMARK   87  A    between atoms: _213  and  _216
REMARK   88  A    between atoms: _216  and  _217
REMARK   89  A    between atoms: _217  and  _218
REMARK   90  A    between atoms: _218  and  _219
REMARK   91  A    between atoms: _228  and  _230
REMARK   92  A    between atoms: _230  and  _231
REMARK   93  A    between atoms: _230  and  _233
REMARK   94  A    between atoms: _233  and  _234
REMARK   95  A    between atoms: _239  and  _241
REMARK   96  A    between atoms: _241  and  _242
REMARK   97  A    between atoms: _241  and  _244
REMARK   98  A    between atoms: _244  and  _245
REMARK   99  A    between atoms: _245  and  _246
REMARK  100  A    between atoms: _246  and  _247
REMARK  101  A    between atoms: _256  and  _258
REMARK  102  A    between atoms: _258  and  _259
REMARK  103  A    between atoms: _258  and  _261
REMARK  104  A    between atoms: _261  and  _262
REMARK  105  A    between atoms: _265  and  _267
REMARK  106  A    between atoms: _267  and  _268
REMARK  107  A    between atoms: _267  and  _270
REMARK  108  A    between atoms: _270  and  _271
REMARK  109  A    between atoms: _274  and  _276
REMARK  110  A    between atoms: _276  and  _277
REMARK  111  A    between atoms: _276  and  _279
REMARK  112  A    between atoms: _279  and  _280
REMARK  113  A    between atoms: _283  and  _285
REMARK  114  A    between atoms: _285  and  _286
REMARK  115  A    between atoms: _285  and  _288
REMARK  116  A    between atoms: _288  and  _289
REMARK  117  A    between atoms: _292  and  _294
REMARK  118  A    between atoms: _294  and  _295
REMARK  119  A    between atoms: _297  and  _299
REMARK  120  A    between atoms: _299  and  _300
REMARK  121  A    between atoms: _303  and  _305
REMARK  122  A    between atoms: _305  and  _306
REMARK  123  A    between atoms: _305  and  _308
REMARK  124  A    between atoms: _308  and  _309
REMARK  125  A    between atoms: _312  and  _314
REMARK  126  A    between atoms: _314  and  _315
REMARK  127  A    between atoms: _314  and  _317
REMARK  128  A    between atoms: _317  and  _318
REMARK  129  A    between atoms: _321  and  _323
REMARK  130  A    between atoms: _323  and  _324
REMARK  131  A    between atoms: _323  and  _326
REMARK  132  A    between atoms: _326  and  _327
REMARK  133  A    between atoms: _330  and  _332
REMARK  134  A    between atoms: _332  and  _333
REMARK  135  A    between atoms: _332  and  _335
REMARK  136  A    between atoms: _338  and  _340
REMARK  137  A    between atoms: _340  and  _341
REMARK  138  A    between atoms: _340  and  _343
REMARK  139  A    between atoms: _343  and  _344
REMARK  140  A    between atoms: _347  and  _349
REMARK  141  A    between atoms: _349  and  _350
REMARK  142  A    between atoms: _349  and  _352
REMARK  143  A    between atoms: _352  and  _353
REMARK  144  A    between atoms: _353  and  _354
REMARK  145  A    between atoms: _356  and  _358
REMARK  146  A    between atoms: _358  and  _359
REMARK  147  A    between atoms: _358  and  _361
REMARK  148  A    between atoms: _361  and  _362
REMARK  149  A    between atoms: _365  and  _367
REMARK  150  A    between atoms: _367  and  _368
REMARK  151  A    between atoms: _371  and  _373
REMARK  152  A    between atoms: _373  and  _374
REMARK  153  A    between atoms: _376  and  _378
REMARK  154  A    between atoms: _378  and  _379
REMARK  155  A    between atoms: _378  and  _381
REMARK  156  A    between atoms: _381  and  _382
REMARK  157  A    between atoms: _385  and  _387
REMARK  158  A    between atoms: _387  and  _388
REMARK  159  A    between atoms: _390  and  _392
REMARK  160  A    between atoms: _392  and  _393
REMARK  161  A    between atoms: _395  and  _397
REMARK  162  A    between atoms: _397  and  _398
REMARK  163  A    between atoms: _397  and  _400
REMARK  164  A    between atoms: _400  and  _401
REMARK  165  A    between atoms: _407  and  _409
REMARK  166  A    between atoms: _409  and  _410
REMARK  167  A    between atoms: _409  and  _412
REMARK  168  A    between atoms: _415  and  _417
REMARK  169  A    between atoms: _417  and  _418
REMARK  170  A    between atoms: _417  and  _420
REMARK  171  A    between atoms: _423  and  _425
REMARK  172  A    between atoms: _425  and  _426
REMARK  173  A    between atoms: _425  and  _428
REMARK  174  A    between atoms: _428  and  _429
REMARK  175  A    between atoms: _432  and  _434
REMARK  176  A    between atoms: _434  and  _435
REMARK  177  A    between atoms: _434  and  _437
REMARK  178  A    between atoms: _437  and  _438
REMARK  179  A    between atoms: _442  and  _443
REMARK  180  A    between atoms: _448  and  _450
REMARK  181  A    between atoms: _450  and  _451
REMARK  182  A    between atoms: _454  and  _456
REMARK  183  A    between atoms: _456  and  _457
REMARK  184  A    between atoms: _456  and  _459
REMARK  185  A    between atoms: _459  and  _460
REMARK  186  A    between atoms: _465  and  _467
REMARK  187  A    between atoms: _467  and  _468
REMARK  188  A    between atoms: _467  and  _470
REMARK  189  A    between atoms: _473  and  _475
REMARK  190  A    between atoms: _475  and  _476
REMARK  191  A    between atoms: _475  and  _478
REMARK  192  A    between atoms: _478  and  _479
REMARK  193  A    between atoms: _482  and  _484
REMARK  194  A    between atoms: _484  and  _485
REMARK  195  A    between atoms: _487  and  _489
REMARK  196  A    between atoms: _489  and  _490
REMARK  197  A    between atoms: _489  and  _492
REMARK  198  A    between atoms: _492  and  _493
REMARK  199  A    between atoms: _493  and  _494
REMARK  200  A    between atoms: _494  and  _495
REMARK  201  A    between atoms: _504  and  _506
REMARK  202  A    between atoms: _506  and  _507
REMARK  203  A    between atoms: _506  and  _509
REMARK  204  A    between atoms: _509  and  _510
REMARK                            x       y       z     vdW  Elec       q    Type
REMARK                         _______ _______ _______ _____ _____    ______ ____
ROOT
ATOM      1  C   GLY A   5      -5.666   0.905 -20.683  0.00  0.00    +0.243 C 
ATOM      2  N   ALA A   6      -6.777   0.178 -20.764  0.00  0.00    -0.297 N 
ATOM      3  H   ALA A   6      -7.307  -0.019 -19.891  0.00  0.00    +0.150 HD
ATOM      4  O   GLY A   5      -4.900   1.067 -21.645  0.00  0.00    -0.273 OA
ENDROOT
BRANCH   2   5
ATOM      5  CA  ALA A   6      -7.288  -0.359 -22.032  0.00  0.00    +0.149 C 
ATOM      6  CB  ALA A   6      -7.797  -1.765 -21.818  0.00  0.00    +0.031 C 
BRANCH   5   7
ATOM      7  C   ALA A   6      -8.392   0.530 -22.610  0.00  0.00    +0.241 C 
ATOM      8  O   ALA A   6      -9.382   0.792 -21.942  0.00  0.00    -0.273 OA
ATOM      9  N   ASP A   7      -8.230   1.000 -23.852  0.00  0.00    -0.297 N 
ATOM     10  H   ASP A   7      -7.324   0.855 -24.342  0.00  0.00    +0.150 HD
BRANCH   9  11
ATOM     11  CA  ASP A   7      -9.313   1.717 -24.530  0.00  0.00    +0.160 C 
BRANCH  11  12
ATOM     12  C   ASP A   7     -10.468   0.769 -24.810  0.00  0.00    +0.241 C 
ATOM     13  O   ASP A   7     -11.645   1.193 -24.846  0.00  0.00    -0.273 OA
ATOM     14  N   ASP A   8     -10.116  -0.508 -25.003  0.00  0.00    -0.297 N 
ATOM     15  H   ASP A   8      -9.154  -0.801 -24.738  0.00  0.00    +0.150 HD
BRANCH  14  16
ATOM     16  CA  ASP A   8     -11.012  -1.506 -25.565  0.00  0.00    +0.160 C 
BRANCH  16  17
ATOM     17  C   ASP A   8     -11.185  -2.677 -24.621  0.00  0.00    +0.241 C 
ATOM     18  O   ASP A   8     -10.369  -2.894 -23.720  0.00  0.00    -0.273 OA
ATOM     19  N   THR A   9     -12.265  -3.421 -24.838  0.00  0.00    -0.295 N 
ATOM     20  H   THR A   9     -12.937  -3.122 -25.573  0.00  0.00    +0.150 HD
BRANCH  19  21
ATOM     21  CA  THR A   9     -12.544  -4.635 -24.089  0.00  0.00    +0.176 C 
BRANCH  21  22
ATOM     22  C   THR A   9     -12.043  -5.799 -24.938  0.00  0.00    +0.243 C 
ATOM     23  N   VAL A  10     -11.101  -6.552 -24.389  0.00  0.00    -0.298 N 
ATOM     24  H   VAL A  10     -10.797  -6.335 -23.418  0.00  0.00    +0.150 HD
ATOM     25  O   THR A   9     -12.474  -5.983 -26.076  0.00  0.00    -0.273 OA
BRANCH  23  26
ATOM     26  CA  VAL A  10     -10.469  -7.673 -25.082  0.00  0.00    +0.137 C 
BRANCH  26  27
ATOM     27  CB  VAL A  10      -8.963  -7.439 -25.335  0.00  0.00    +0.026 C 
ATOM     28  CG2 VAL A  10      -8.721  -6.069 -25.957  0.00  0.00    +0.002 C 
ATOM     29  CG1 VAL A  10      -8.423  -8.548 -26.246  0.00  0.00    +0.002 C 
ENDBRANCH  26  27
BRANCH  26  30
ATOM     30  C   VAL A  10     -10.619  -8.943 -24.245  0.00  0.00    +0.227 C 
ATOM     31  O   VAL A  10     -10.169  -9.001 -23.099  0.00  0.00    -0.286 OA
ENDBRANCH  26  30
ENDBRANCH  23  26
ENDBRANCH  21  22
BRANCH  21  32
ATOM     32  CB  THR A   9     -14.060  -4.757 -23.794  0.00  0.00    +0.137 C 
ATOM     33  CG2 THR A   9     -14.408  -6.082 -23.100  0.00  0.00    +0.034 C 
BRANCH  32  34
ATOM     34  OG1 THR A   9     -14.458  -3.658 -22.961  0.00  0.00    -0.382 OA
ATOM     35  HG1 THR A   9     -14.274  -2.806 -23.431  0.00  0.00    +0.210 HD
ENDBRANCH  32  34
ENDBRANCH  21  32
ENDBRANCH  19  21
ENDBRANCH  16  17
BRANCH  16  36
ATOM     36  CB  ASP A   8     -10.476  -2.061 -26.889  0.00  0.00    +0.143 C 
BRANCH  36  37
ATOM     37  CG  ASP A   8     -10.192  -0.983 -27.941  0.00  0.00    +0.367 C 
ATOM     38  OD2 ASP A   8     -11.081  -0.181 -28.273  0.00  0.00    -0.246 OA
ATOM     39  OD1 ASP A   8      -9.063  -0.975 -28.464  0.00  0.00    -0.246 OA
ENDBRANCH  36  37
ENDBRANCH  16  36
ENDBRANCH  14  16
ENDBRANCH  11  12
BRANCH  11  40
ATOM     40  CB  ASP A   7      -8.853   2.296 -25.881  0.00  0.00    +0.143 C 
BRANCH  40  41
ATOM     41  CG  ASP A   7      -7.729   3.308 -25.751  0.00  0.00    +0.367 C 
ATOM     42  OD2 ASP A   7      -7.425   3.810 -24.644  0.00  0.00    -0.246 OA
ATOM     43  OD1 ASP A   7      -7.147   3.609 -26.788  0.00  0.00    -0.246 OA
ENDBRANCH  40  41
ENDBRANCH  11  40
ENDBRANCH   9  11
ENDBRANCH   5   7
ENDBRANCH   2   5
BRANCH   1  44
ATOM     44  CA  GLY A   5      -5.340   1.500 -19.318  0.00  0.00    +0.176 C 
BRANCH  44  46
ATOM     45  C   THR A   4      -7.387   2.035 -18.064  0.00  0.00    +0.243 C 
ATOM     46  N   GLY A   5      -6.334   1.236 -18.265  0.00  0.00    -0.295 N 
ATOM     47  H   GLY A   5      -6.213   0.401 -17.657  0.00  0.00    +0.150 HD
ATOM     48  O   THR A   4      -7.575   3.060 -18.714  0.00  0.00    -0.273 OA
BRANCH  45  49
ATOM     49  CA  THR A   4      -8.382   1.637 -16.960  0.00  0.00    +0.176 C 
BRANCH  49  51
ATOM     50  C   ASP A   3      -8.552  -0.774 -17.385  0.00  0.00    +0.241 C 
ATOM     51  N   THR A   4      -8.270   0.224 -16.541  0.00  0.00    -0.295 N 
ATOM     52  H   THR A   4      -7.966   0.002 -15.572  0.00  0.00    +0.150 HD
ATOM     53  O   ASP A   3      -8.908  -0.575 -18.544  0.00  0.00    -0.273 OA
BRANCH  50  54
ATOM     54  CA  ASP A   3      -8.451  -2.205 -16.844  0.00  0.00    +0.160 C 
BRANCH  54  57
ATOM     55  C   LEU A   2      -9.973  -3.042 -15.113  0.00  0.00    +0.241 C 
ATOM     56  O   LEU A   2      -9.193  -2.834 -14.199  0.00  0.00    -0.273 OA
ATOM     57  N   ASP A   3      -9.748  -2.646 -16.364  0.00  0.00    -0.297 N 
ATOM     58  H   ASP A   3     -10.544  -2.653 -17.033  0.00  0.00    +0.150 HD
BRANCH  55  59
ATOM     59  CA  LEU A   2     -11.283  -3.801 -14.885  0.00  0.00    +0.149 C 
BRANCH  59  61
ATOM     60  C   LEU A   1     -10.585  -6.032 -15.559  0.00  0.00    +0.238 C 
ATOM     61  N   LEU A   2     -10.970  -5.196 -14.596  0.00  0.00    -0.297 N 
ATOM     62  H   LEU A   2     -11.049  -5.545 -13.619  0.00  0.00    +0.150 HD
ATOM     63  O   LEU A   1     -10.583  -5.715 -16.746  0.00  0.00    -0.274 OA
BRANCH  60  64
ATOM     64  CA  LEU A   1     -10.133  -7.429 -15.112  0.00  0.00    +0.145 C 
BRANCH  64  65
ATOM     65  N   LEU A   1     -10.890  -8.500 -15.742  0.00  0.00    -0.238 NA
ATOM     66  H   LEU A   1     -10.547  -8.874 -16.650  0.00  0.00    +0.142 HD
ENDBRANCH  64  65
BRANCH  64  67
ATOM     67  CB  LEU A   1      -8.637  -7.608 -15.416  0.00  0.00    +0.026 C 
BRANCH  67  68
ATOM     68  CG  LEU A   1      -7.623  -6.608 -14.832  0.00  0.00    +0.002 C 
ATOM     69  CD2 LEU A   1      -7.494  -6.836 -13.359  0.00  0.00    +0.000 C 
ATOM     70  CD1 LEU A   1      -6.272  -6.800 -15.506  0.00  0.00    +0.000 C 
ENDBRANCH  67  68
ENDBRANCH  64  67
ENDBRANCH  60  64
ENDBRANCH  59  61
BRANCH  59  71
ATOM     71  CB  LEU A   2     -12.154  -3.197 -13.772  0.00  0.00    +0.029 C 
BRANCH  71  72
ATOM     72  CG  LEU A   2     -13.480  -3.936 -13.489  0.00  0.00    +0.002 C 
ATOM     73  CD2 LEU A   2     -14.303  -3.253 -12.386  0.00  0.00    +0.000 C 
ATOM     74  CD1 LEU A   2     -14.339  -4.118 -14.787  0.00  0.00    +0.000 C 
ENDBRANCH  71  72
ENDBRANCH  59  71
ENDBRANCH  55  59
ENDBRANCH  54  57
BRANCH  54  75
ATOM     75  CB  ASP A   3      -8.006  -3.185 -17.946  0.00  0.00    +0.143 C 
BRANCH  75  76
ATOM     76  CG  ASP A   3      -6.637  -2.856 -18.520  0.00  0.00    +0.367 C 
ATOM     77  OD2 ASP A   3      -6.061  -1.822 -18.136  0.00  0.00    -0.246 OA
ATOM     78  OD1 ASP A   3      -6.155  -3.629 -19.378  0.00  0.00    -0.246 OA
ENDBRANCH  75  76
ENDBRANCH  54  75
ENDBRANCH  50  54
ENDBRANCH  49  51
BRANCH  49  79
ATOM     79  CB  THR A   4      -8.255   2.636 -15.773  0.00  0.00    +0.137 C 
ATOM     80  CG2 THR A   4      -9.401   2.475 -14.773  0.00  0.00    +0.034 C 
BRANCH  79  81
ATOM     81  OG1 THR A   4      -6.998   2.442 -15.109  0.00  0.00    -0.382 OA
ATOM     82  HG1 THR A   4      -6.260   2.598 -15.750  0.00  0.00    +0.210 HD
ENDBRANCH  79  81
ENDBRANCH  49  79
ENDBRANCH  45  49
ENDBRANCH  44  46
ENDBRANCH   1  44
TORSDOF 35
REMARK  Name = ../refined-set-2016/3t3c/3t3c_pocket.pdb
REMARK  204 active torsions:
REMARK  status: ('A' for Active; 'I' for Inactive)
REMARK    1  A    between atoms: _1  and  _3
REMARK    2  A    between atoms: _3  and  _4
REMARK    3  A    between atoms: _3  and  _6
REMARK    4  A    between atoms: _6  and  _7
REMARK    5  A    between atoms: _7  and  _8
REMARK    6  A    between atoms: _8  and  _9
REMARK    7  A    between atoms: _18  and  _20
REMARK    8  A    between atoms: _20  and  _21
REMARK    9  A    between atoms: _20  and  _23
REMARK   10  A    between atoms: _23  and  _24
REMARK   11  A    between atoms: _27  and  _29
REMARK   12  A    between atoms: _29  and  _30
REMARK   13  A    between atoms: _29  and  _32
REMARK   14  A    between atoms: _32  and  _33
REMARK   15  A    between atoms: _36  and  _38
REMARK   16  A    between atoms: _38  and  _39
REMARK   17  A    between atoms: _38  and  _41
REMARK   18  A    between atoms: _41  and  _42
REMARK   19  A    between atoms: _45  and  _47
REMARK   20  A    between atoms: _47  and  _48
REMARK   21  A    between atoms: _47  and  _50
REMARK   22  A    between atoms: _50  and  _51
REMARK   23  A    between atoms: _54  and  _56
REMARK   24  A    between atoms: _56  and  _57
REMARK   25  A    between atoms: _59  and  _61
REMARK   26  A    between atoms: _61  and  _62
REMARK   27  A    between atoms: _65  and  _67
REMARK   28  A    between atoms: _67  and  _68
REMARK   29  A    between atoms: _67  and  _70
REMARK   30  A    between atoms: _70  and  _71
REMARK   31  A    between atoms: _74  and  _76
REMARK   32  A    between atoms: _76  and  _77
REMARK   33  A    between atoms: _76  and  _79
REMARK   34  A    between atoms: _79  and  _80
REMARK   35  A    between atoms: _83  and  _85
REMARK   36  A    between atoms: _85  and  _86
REMARK   37  A    between atoms: _85  and  _88
REMARK   38  A    between atoms: _88  and  _89
REMARK   39  A    between atoms: _92  and  _94
REMARK   40  A    between atoms: _94  and  _95
REMARK   41  A    between atoms: _94  and  _97
REMARK   42  A    between atoms: _100  and  _102
REMARK   43  A    between atoms: _102  and  _103
REMARK   44  A    between atoms: _102  and  _105
REMARK   45  A    between atoms: _105  and  _106
REMARK   46  A    between atoms: _109  and  _111
REMARK   47  A    between atoms: _111  and  _112
REMARK   48  A    between atoms: _115  and  _117
REMARK   49  A    between atoms: _117  and  _118
REMARK   50  A    between atoms: _120  and  _122
REMARK   51  A    between atoms: _122  and  _123
REMARK   52  A    between atoms: _122  and  _125
REMARK   53  A    between atoms: _125  and  _126
REMARK   54  A    between atoms: _129  and  _131
REMARK   55  A    between atoms: _131  and  _132
REMARK   56  A    between atoms: _134  and  _136
REMARK   57  A    between atoms: _136  and  _137
REMARK   58  A    between atoms: _139  and  _141
REMARK   59  A    between atoms: _141  and  _142
REMARK   60  A    between atoms: _141  and  _144
REMARK   61  A    between atoms: _147  and  _149
REMARK   62  A    between atoms: _149  and  _150
REMARK   63  A    between atoms: _149  and  _152
REMARK   64  A    between atoms: _152  and  _153
REMARK   65  A    between atoms: _156  and  _158
REMARK   66  A    between atoms: _158  and  _159
REMARK   67  A    between atoms: _158  and  _161
REMARK   68  A    between atoms: _161  and  _162
REMARK   69  A    between atoms: _166  and  _167
REMARK   70  A    between atoms: _172  and  _174
REMARK   71  A    between atoms: _174  and  _175
REMARK   72  A    between atoms: _178  and  _180
REMARK   73  A    between atoms: _180  and  _181
REMARK   74  A    between atoms: _180  and  _183
REMARK   75  A    between atoms: _183  and  _184
REMARK   76  A    between atoms: _189  and  _191
REMARK   77  A    between atoms: _191  and  _192
REMARK   78  A    between atoms: _191  and  _194
REMARK   79  A    between atoms: _197  and  _199
REMARK   80  A    between atoms: _199  and  _200
REMARK   81  A    between atoms: _199  and  _202
REMARK   82  A    between atoms: _202  and  _203
REMARK   83  A    between atoms: _206  and  _208
REMARK   84  A    between atoms: _208  and  _209
REMARK   85  A    between atoms: _211  and  _213
REMARK   86  A    between atoms: _213  and  _214
REMARK   87  A    between atoms: _213  and  _216
REMARK   88  A    between atoms: _216  and  _217
REMARK   89  A    between atoms: _217  and  _218
REMARK   90  A    between atoms: _218  and  _219
REMARK   91  A    between atoms: _228  and  _230
REMARK   92  A    between atoms: _230  and  _231
REMARK   93  A    between atoms: _230  and  _233
REMARK   94  A    between atoms: _233  and  _234
REMARK   95  A    between atoms: _239  and  _241
REMARK   96  A    between atoms: _241  and  _242
REMARK   97  A    between atoms: _241  and  _244
REMARK   98  A    between atoms: _244  and  _245
REMARK   99  A    between atoms: _245  and  _246
REMARK  100  A    between atoms: _246  and  _247
REMARK  101  A    between atoms: _256  and  _258
REMARK  102  A    between atoms: _258  and  _259
REMARK  103  A    between atoms: _258  and  _261
REMARK  104  A    between atoms: _261  and  _262
REMARK  105  A    between atoms: _265  and  _267
REMARK  106  A    between atoms: _267  and  _268
REMARK  107  A    between atoms: _267  and  _270
REMARK  108  A    between atoms: _270  and  _271
REMARK  109  A    between atoms: _274  and  _276
REMARK  110  A    between atoms: _276  and  _277
REMARK  111  A    between atoms: _276  and  _279
REMARK  112  A    between atoms: _279  and  _280
REMARK  113  A    between atoms: _283  and  _285
REMARK  114  A    between atoms: _285  and  _286
REMARK  115  A    between atoms: _285  and  _288
REMARK  116  A    between atoms: _288  and  _289
REMARK  117  A    between atoms: _292  and  _294
REMARK  118  A    between atoms: _294  and  _295
REMARK  119  A    between atoms: _297  and  _299
REMARK  120  A    between atoms: _299  and  _300
REMARK  121  A    between atoms: _303  and  _305
REMARK  122  A    between atoms: _305  and  _306
REMARK  123  A    between atoms: _305  and  _308
REMARK  124  A    between atoms: _308  and  _309
REMARK  125  A    between atoms: _312  and  _314
REMARK  126  A    between atoms: _314  and  _315
REMARK  127  A    between atoms: _314  and  _317
REMARK  128  A    between atoms: _317  and  _318
REMARK  129  A    between atoms: _321  and  _323
REMARK  130  A    between atoms: _323  and  _324
REMARK  131  A    between atoms: _323  and  _326
REMARK  132  A    between atoms: _326  and  _327
REMARK  133  A    between atoms: _330  and  _332
REMARK  134  A    between atoms: _332  and  _333
REMARK  135  A    between atoms: _332  and  _335
REMARK  136  A    between atoms: _338  and  _340
REMARK  137  A    between atoms: _340  and  _341
REMARK  138  A    between atoms: _340  and  _343
REMARK  139  A    between atoms: _343  and  _344
REMARK  140  A    between atoms: _347  and  _349
REMARK  141  A    between atoms: _349  and  _350
REMARK  142  A    between atoms: _349  and  _352
REMARK  143  A    between atoms: _352  and  _353
REMARK  144  A    between atoms: _353  and  _354
REMARK  145  A    between atoms: _356  and  _358
REMARK  146  A    between atoms: _358  and  _359
REMARK  147  A    between atoms: _358  and  _361
REMARK  148  A    between atoms: _361  and  _362
REMARK  149  A    between atoms: _365  and  _367
REMARK  150  A    between atoms: _367  and  _368
REMARK  151  A    between atoms: _371  and  _373
REMARK  152  A    between atoms: _373  and  _374
REMARK  153  A    between atoms: _376  and  _378
REMARK  154  A    between atoms: _378  and  _379
REMARK  155  A    between atoms: _378  and  _381
REMARK  156  A    between atoms: _381  and  _382
REMARK  157  A    between atoms: _385  and  _387
REMARK  158  A    between atoms: _387  and  _388
REMARK  159  A    between atoms: _390  and  _392
REMARK  160  A    between atoms: _392  and  _393
REMARK  161  A    between atoms: _395  and  _397
REMARK  162  A    between atoms: _397  and  _398
REMARK  163  A    between atoms: _397  and  _400
REMARK  164  A    between atoms: _400  and  _401
REMARK  165  A    between atoms: _407  and  _409
REMARK  166  A    between atoms: _409  and  _410
REMARK  167  A    between atoms: _409  and  _412
REMARK  168  A    between atoms: _415  and  _417
REMARK  169  A    between atoms: _417  and  _418
REMARK  170  A    between atoms: _417  and  _420
REMARK  171  A    between atoms: _423  and  _425
REMARK  172  A    between atoms: _425  and  _426
REMARK  173  A    between atoms: _425  and  _428
REMARK  174  A    between atoms: _428  and  _429
REMARK  175  A    between atoms: _432  and  _434
REMARK  176  A    between atoms: _434  and  _435
REMARK  177  A    between atoms: _434  and  _437
REMARK  178  A    between atoms: _437  and  _438
REMARK  179  A    between atoms: _442  and  _443
REMARK  180  A    between atoms: _448  and  _450
REMARK  181  A    between atoms: _450  and  _451
REMARK  182  A    between atoms: _454  and  _456
REMARK  183  A    between atoms: _456  and  _457
REMARK  184  A    between atoms: _456  and  _459
REMARK  185  A    between atoms: _459  and  _460
REMARK  186  A    between atoms: _465  and  _467
REMARK  187  A    between atoms: _467  and  _468
REMARK  188  A    between atoms: _467  and  _470
REMARK  189  A    between atoms: _473  and  _475
REMARK  190  A    between atoms: _475  and  _476
REMARK  191  A    between atoms: _475  and  _478
REMARK  192  A    between atoms: _478  and  _479
REMARK  193  A    between atoms: _482  and  _484
REMARK  194  A    between atoms: _484  and  _485
REMARK  195  A    between atoms: _487  and  _489
REMARK  196  A    between atoms: _489  and  _490
REMARK  197  A    between atoms: _489  and  _492
REMARK  198  A    between atoms: _492  and  _493
REMARK  199  A    between atoms: _493  and  _494
REMARK  200  A    between atoms: _494  and  _495
REMARK  201  A    between atoms: _504  and  _506
REMARK  202  A    between atoms: _506  and  _507
REMARK  203  A    between atoms: _506  and  _509
REMARK  204  A    between atoms: _509  and  _510
REMARK                            x       y       z     vdW  Elec       q    Type
REMARK                         _______ _______ _______ _____ _____    ______ ____
ROOT
ATOM      1  C   GLY A   3       0.666  -3.666 -26.582  0.00  0.00    +0.243 C 
ATOM      2  N   ILE A   4       1.114  -3.989 -25.375  0.00  0.00    -0.297 N 
ATOM      3  H   ILE A   4       0.461  -4.422 -24.691  0.00  0.00    +0.150 HD
ATOM      4  O   GLY A   3       1.384  -3.165 -27.457  0.00  0.00    -0.273 OA
ENDROOT
BRANCH   2   5
ATOM      5  CA  ILE A   4       2.506  -3.751 -24.981  0.00  0.00    +0.149 C 
BRANCH   5   6
ATOM      6  C   ILE A   4       3.555  -4.430 -25.900  0.00  0.00    +0.241 C 
ATOM      7  O   ILE A   4       4.658  -3.904 -26.072  0.00  0.00    -0.273 OA
ATOM      8  N   GLY A   5       3.214  -5.574 -26.507  0.00  0.00    -0.295 N 
ATOM      9  H   GLY A   5       2.252  -5.949 -26.383  0.00  0.00    +0.150 HD
BRANCH   8  10
ATOM     10  CA  GLY A   5       4.178  -6.316 -27.351  0.00  0.00    +0.176 C 
BRANCH  10  11
ATOM     11  C   GLY A   5       3.938  -6.187 -28.845  0.00  0.00    +0.243 C 
ATOM     12  N   GLY A   6       3.021  -5.301 -29.229  0.00  0.00    -0.296 N 
ATOM     13  H   GLY A   6       2.503  -4.768 -28.502  0.00  0.00    +0.150 HD
ATOM     14  O   GLY A   5       4.590  -6.866 -29.645  0.00  0.00    -0.273 OA
BRANCH  12  15
ATOM     15  CA  GLY A   6       2.720  -5.054 -30.630  0.00  0.00    +0.163 C 
BRANCH  15  16
ATOM     16  C   GLY A   6       1.350  -5.617 -31.002  0.00  0.00    +0.229 C 
ATOM     17  O   GLY A   6       0.533  -5.889 -30.138  0.00  0.00    -0.286 OA
ENDBRANCH  15  16
ENDBRANCH  12  15
ENDBRANCH  10  11
ENDBRANCH   8  10
ENDBRANCH   5   6
BRANCH   5  18
ATOM     18  CB  ILE A   4       2.717  -4.079 -23.451  0.00  0.00    +0.027 C 
ATOM     19  CG2 ILE A   4       3.076  -5.558 -23.201  0.00  0.00    +0.002 C 
BRANCH  18  20
ATOM     20  CG1 ILE A   4       3.719  -3.124 -22.814  0.00  0.00    +0.002 C 
ATOM     21  CD1 ILE A   4       4.004  -3.478 -21.371  0.00  0.00    +0.000 C 
ENDBRANCH  18  20
ENDBRANCH   5  18
ENDBRANCH   2   5
BRANCH   1  22
ATOM     22  CA  GLY A   3      -0.791  -3.955 -26.852  0.00  0.00    +0.176 C 
BRANCH  22  24
ATOM     23  C   ALA A   2      -1.628  -3.057 -28.954  0.00  0.00    +0.241 C 
ATOM     24  N   GLY A   3      -0.994  -4.017 -28.286  0.00  0.00    -0.295 N 
ATOM     25  H   GLY A   3      -0.632  -4.839 -28.810  0.00  0.00    +0.150 HD
ATOM     26  O   ALA A   2      -2.251  -2.159 -28.399  0.00  0.00    -0.273 OA
BRANCH  23  27
ATOM     27  CA  ALA A   2      -1.570  -3.149 -30.488  0.00  0.00    +0.149 C 
ATOM     28  CB  ALA A   2      -0.654  -2.069 -31.078  0.00  0.00    +0.031 C 
BRANCH  27  30
ATOM     29  C   ILE A   1      -3.497  -4.192 -31.505  0.00  0.00    +0.238 C 
ATOM     30  N   ALA A   2      -2.898  -3.086 -31.092  0.00  0.00    -0.297 N 
ATOM     31  H   ALA A   2      -3.375  -2.168 -31.198  0.00  0.00    +0.150 HD
ATOM     32  O   ILE A   1      -2.953  -5.290 -31.444  0.00  0.00    -0.274 OA
BRANCH  29  33
ATOM     33  CA  ILE A   1      -4.903  -4.040 -32.091  0.00  0.00    +0.145 C 
BRANCH  33  34
ATOM     34  N   ILE A   1      -5.122  -5.010 -33.164  0.00  0.00    -0.238 NA
ATOM     35  H   ILE A   1      -4.993  -6.022 -32.960  0.00  0.00    +0.142 HD
ENDBRANCH  33  34
BRANCH  33  36
ATOM     36  CB  ILE A   1      -5.986  -4.115 -30.958  0.00  0.00    +0.025 C 
ATOM     37  CG2 ILE A   1      -7.360  -3.786 -31.508  0.00  0.00    +0.002 C 
BRANCH  36  38
ATOM     38  CG1 ILE A   1      -6.025  -5.491 -30.290  0.00  0.00    +0.002 C 
ATOM     39  CD1 ILE A   1      -6.385  -5.442 -28.791  0.00  0.00    +0.000 C 
ENDBRANCH  36  38
ENDBRANCH  33  36
ENDBRANCH  29  33
ENDBRANCH  27  30
ENDBRANCH  23  27
ENDBRANCH  22  24
ENDBRANCH   1  22
TORSDOF 16
REMARK  Name = ../refined-set-2016/3t3c/3t3c_pocket.pdb
REMARK  204 active torsions:
REMARK  status: ('A' for Active; 'I' for Inactive)
REMARK    1  A    between atoms: _1  and  _3
REMARK    2  A    between atoms: _3  and  _4
REMARK    3  A    between atoms: _3  and  _6
REMARK    4  A    between atoms: _6  and  _7
REMARK    5  A    between atoms: _7  and  _8
REMARK    6  A    between atoms: _8  and  _9
REMARK    7  A    between atoms: _18  and  _20
REMARK    8  A    between atoms: _20  and  _21
REMARK    9  A    between atoms: _20  and  _23
REMARK   10  A    between atoms: _23  and  _24
REMARK   11  A    between atoms: _27  and  _29
REMARK   12  A    between atoms: _29  and  _30
REMARK   13  A    between atoms: _29  and  _32
REMARK   14  A    between atoms: _32  and  _33
REMARK   15  A    between atoms: _36  and  _38
REMARK   16  A    between atoms: _38  and  _39
REMARK   17  A    between atoms: _38  and  _41
REMARK   18  A    between atoms: _41  and  _42
REMARK   19  A    between atoms: _45  and  _47
REMARK   20  A    between atoms: _47  and  _48
REMARK   21  A    between atoms: _47  and  _50
REMARK   22  A    between atoms: _50  and  _51
REMARK   23  A    between atoms: _54  and  _56
REMARK   24  A    between atoms: _56  and  _57
REMARK   25  A    between atoms: _59  and  _61
REMARK   26  A    between atoms: _61  and  _62
REMARK   27  A    between atoms: _65  and  _67
REMARK   28  A    between atoms: _67  and  _68
REMARK   29  A    between atoms: _67  and  _70
REMARK   30  A    between atoms: _70  and  _71
REMARK   31  A    between atoms: _74  and  _76
REMARK   32  A    between atoms: _76  and  _77
REMARK   33  A    between atoms: _76  and  _79
REMARK   34  A    between atoms: _79  and  _80
REMARK   35  A    between atoms: _83  and  _85
REMARK   36  A    between atoms: _85  and  _86
REMARK   37  A    between atoms: _85  and  _88
REMARK   38  A    between atoms: _88  and  _89
REMARK   39  A    between atoms: _92  and  _94
REMARK   40  A    between atoms: _94  and  _95
REMARK   41  A    between atoms: _94  and  _97
REMARK   42  A    between atoms: _100  and  _102
REMARK   43  A    between atoms: _102  and  _103
REMARK   44  A    between atoms: _102  and  _105
REMARK   45  A    between atoms: _105  and  _106
REMARK   46  A    between atoms: _109  and  _111
REMARK   47  A    between atoms: _111  and  _112
REMARK   48  A    between atoms: _115  and  _117
REMARK   49  A    between atoms: _117  and  _118
REMARK   50  A    between atoms: _120  and  _122
REMARK   51  A    between atoms: _122  and  _123
REMARK   52  A    between atoms: _122  and  _125
REMARK   53  A    between atoms: _125  and  _126
REMARK   54  A    between atoms: _129  and  _131
REMARK   55  A    between atoms: _131  and  _132
REMARK   56  A    between atoms: _134  and  _136
REMARK   57  A    between atoms: _136  and  _137
REMARK   58  A    between atoms: _139  and  _141
REMARK   59  A    between atoms: _141  and  _142
REMARK   60  A    between atoms: _141  and  _144
REMARK   61  A    between atoms: _147  and  _149
REMARK   62  A    between atoms: _149  and  _150
REMARK   63  A    between atoms: _149  and  _152
REMARK   64  A    between atoms: _152  and  _153
REMARK   65  A    between atoms: _156  and  _158
REMARK   66  A    between atoms: _158  and  _159
REMARK   67  A    between atoms: _158  and  _161
REMARK   68  A    between atoms: _161  and  _162
REMARK   69  A    between atoms: _166  and  _167
REMARK   70  A    between atoms: _172  and  _174
REMARK   71  A    between atoms: _174  and  _175
REMARK   72  A    between atoms: _178  and  _180
REMARK   73  A    between atoms: _180  and  _181
REMARK   74  A    between atoms: _180  and  _183
REMARK   75  A    between atoms: _183  and  _184
REMARK   76  A    between atoms: _189  and  _191
REMARK   77  A    between atoms: _191  and  _192
REMARK   78  A    between atoms: _191  and  _194
REMARK   79  A    between atoms: _197  and  _199
REMARK   80  A    between atoms: _199  and  _200
REMARK   81  A    between atoms: _199  and  _202
REMARK   82  A    between atoms: _202  and  _203
REMARK   83  A    between atoms: _206  and  _208
REMARK   84  A    between atoms: _208  and  _209
REMARK   85  A    between atoms: _211  and  _213
REMARK   86  A    between atoms: _213  and  _214
REMARK   87  A    between atoms: _213  and  _216
REMARK   88  A    between atoms: _216  and  _217
REMARK   89  A    between atoms: _217  and  _218
REMARK   90  A    between atoms: _218  and  _219
REMARK   91  A    between atoms: _228  and  _230
REMARK   92  A    between atoms: _230  and  _231
REMARK   93  A    between atoms: _230  and  _233
REMARK   94  A    between atoms: _233  and  _234
REMARK   95  A    between atoms: _239  and  _241
REMARK   96  A    between atoms: _241  and  _242
REMARK   97  A    between atoms: _241  and  _244
REMARK   98  A    between atoms: _244  and  _245
REMARK   99  A    between atoms: _245  and  _246
REMARK  100  A    between atoms: _246  and  _247
REMARK  101  A    between atoms: _256  and  _258
REMARK  102  A    between atoms: _258  and  _259
REMARK  103  A    between atoms: _258  and  _261
REMARK  104  A    between atoms: _261  and  _262
REMARK  105  A    between atoms: _265  and  _267
REMARK  106  A    between atoms: _267  and  _268
REMARK  107  A    between atoms: _267  and  _270
REMARK  108  A    between atoms: _270  and  _271
REMARK  109  A    between atoms: _274  and  _276
REMARK  110  A    between atoms: _276  and  _277
REMARK  111  A    between atoms: _276  and  _279
REMARK  112  A    between atoms: _279  and  _280
REMARK  113  A    between atoms: _283  and  _285
REMARK  114  A    between atoms: _285  and  _286
REMARK  115  A    between atoms: _285  and  _288
REMARK  116  A    between atoms: _288  and  _289
REMARK  117  A    between atoms: _292  and  _294
REMARK  118  A    between atoms: _294  and  _295
REMARK  119  A    between atoms: _297  and  _299
REMARK  120  A    between atoms: _299  and  _300
REMARK  121  A    between atoms: _303  and  _305
REMARK  122  A    between atoms: _305  and  _306
REMARK  123  A    between atoms: _305  and  _308
REMARK  124  A    between atoms: _308  and  _309
REMARK  125  A    between atoms: _312  and  _314
REMARK  126  A    between atoms: _314  and  _315
REMARK  127  A    between atoms: _314  and  _317
REMARK  128  A    between atoms: _317  and  _318
REMARK  129  A    between atoms: _321  and  _323
REMARK  130  A    between atoms: _323  and  _324
REMARK  131  A    between atoms: _323  and  _326
REMARK  132  A    between atoms: _326  and  _327
REMARK  133  A    between atoms: _330  and  _332
REMARK  134  A    between atoms: _332  and  _333
REMARK  135  A    between atoms: _332  and  _335
REMARK  136  A    between atoms: _338  and  _340
REMARK  137  A    between atoms: _340  and  _341
REMARK  138  A    between atoms: _340  and  _343
REMARK  139  A    between atoms: _343  and  _344
REMARK  140  A    between atoms: _347  and  _349
REMARK  141  A    between atoms: _349  and  _350
REMARK  142  A    between atoms: _349  and  _352
REMARK  143  A    between atoms: _352  and  _353
REMARK  144  A    between atoms: _353  and  _354
REMARK  145  A    between atoms: _356  and  _358
REMARK  146  A    between atoms: _358  and  _359
REMARK  147  A    between atoms: _358  and  _361
REMARK  148  A    between atoms: _361  and  _362
REMARK  149  A    between atoms: _365  and  _367
REMARK  150  A    between atoms: _367  and  _368
REMARK  151  A    between atoms: _371  and  _373
REMARK  152  A    between atoms: _373  and  _374
REMARK  153  A    between atoms: _376  and  _378
REMARK  154  A    between atoms: _378  and  _379
REMARK  155  A    between atoms: _378  and  _381
REMARK  156  A    between atoms: _381  and  _382
REMARK  157  A    between atoms: _385  and  _387
REMARK  158  A    between atoms: _387  and  _388
REMARK  159  A    between atoms: _390  and  _392
REMARK  160  A    between atoms: _392  and  _393
REMARK  161  A    between atoms: _395  and  _397
REMARK  162  A    between atoms: _397  and  _398
REMARK  163  A    between atoms: _397  and  _400
REMARK  164  A    between atoms: _400  and  _401
REMARK  165  A    between atoms: _407  and  _409
REMARK  166  A    between atoms: _409  and  _410
REMARK  167  A    between atoms: _409  and  _412
REMARK  168  A    between atoms: _415  and  _417
REMARK  169  A    between atoms: _417  and  _418
REMARK  170  A    between atoms: _417  and  _420
REMARK  171  A    between atoms: _423  and  _425
REMARK  172  A    between atoms: _425  and  _426
REMARK  173  A    between atoms: _425  and  _428
REMARK  174  A    between atoms: _428  and  _429
REMARK  175  A    between atoms: _432  and  _434
REMARK  176  A    between atoms: _434  and  _435
REMARK  177  A    between atoms: _434  and  _437
REMARK  178  A    between atoms: _437  and  _438
REMARK  179  A    between atoms: _442  and  _443
REMARK  180  A    between atoms: _448  and  _450
REMARK  181  A    between atoms: _450  and  _451
REMARK  182  A    between atoms: _454  and  _456
REMARK  183  A    between atoms: _456  and  _457
REMARK  184  A    between atoms: _456  and  _459
REMARK  185  A    between atoms: _459  and  _460
REMARK  186  A    between atoms: _465  and  _467
REMARK  187  A    between atoms: _467  and  _468
REMARK  188  A    between atoms: _467  and  _470
REMARK  189  A    between atoms: _473  and  _475
REMARK  190  A    between atoms: _475  and  _476
REMARK  191  A    between atoms: _475  and  _478
REMARK  192  A    between atoms: _478  and  _479
REMARK  193  A    between atoms: _482  and  _484
REMARK  194  A    between atoms: _484  and  _485
REMARK  195  A    between atoms: _487  and  _489
REMARK  196  A    between atoms: _489  and  _490
REMARK  197  A    between atoms: _489  and  _492
REMARK  198  A    between atoms: _492  and  _493
REMARK  199  A    between atoms: _493  and  _494
REMARK  200  A    between atoms: _494  and  _495
REMARK  201  A    between atoms: _504  and  _506
REMARK  202  A    between atoms: _506  and  _507
REMARK  203  A    between atoms: _506  and  _509
REMARK  204  A    between atoms: _509  and  _510
REMARK                            x       y       z     vdW  Elec       q    Type
REMARK                         _______ _______ _______ _____ _____    ______ ____
ROOT
ATOM      1  CA  VAL A   1      -2.527  -9.076 -32.430  0.00  0.00    +0.133 C 
ENDROOT
BRANCH   1   2
ATOM      2  CB  VAL A   1      -2.884  -9.614 -30.997  0.00  0.00    +0.023 C 
ATOM      3  CG2 VAL A   1      -1.656  -9.710 -30.088  0.00  0.00    +0.002 C 
ATOM      4  CG1 VAL A   1      -3.950  -8.765 -30.332  0.00  0.00    +0.002 C 
ENDBRANCH   1   2
BRANCH   1   5
ATOM      5  N   VAL A   1      -1.904  -7.755 -32.408  0.00  0.00    -0.239 NA
ATOM      6  H   VAL A   1      -2.502  -6.928 -32.208  0.00  0.00    +0.142 HD
ENDBRANCH   1   5
BRANCH   1   7
ATOM      7  C   VAL A   1      -3.811  -9.017 -33.271  0.00  0.00    +0.224 C 
ATOM      8  O   VAL A   1      -4.469  -7.975 -33.341  0.00  0.00    -0.287 OA
ENDBRANCH   1   7
TORSDOF 3
REMARK  Name = ../refined-set-2016/3t3c/3t3c_pocket.pdb
REMARK  204 active torsions:
REMARK  status: ('A' for Active; 'I' for Inactive)
REMARK    1  A    between atoms: _1  and  _3
REMARK    2  A    between atoms: _3  and  _4
REMARK    3  A    between atoms: _3  and  _6
REMARK    4  A    between atoms: _6  and  _7
REMARK    5  A    between atoms: _7  and  _8
REMARK    6  A    between atoms: _8  and  _9
REMARK    7  A    between atoms: _18  and  _20
REMARK    8  A    between atoms: _20  and  _21
REMARK    9  A    between atoms: _20  and  _23
REMARK   10  A    between atoms: _23  and  _24
REMARK   11  A    between atoms: _27  and  _29
REMARK   12  A    between atoms: _29  and  _30
REMARK   13  A    between atoms: _29  and  _32
REMARK   14  A    between atoms: _32  and  _33
REMARK   15  A    between atoms: _36  and  _38
REMARK   16  A    between atoms: _38  and  _39
REMARK   17  A    between atoms: _38  and  _41
REMARK   18  A    between atoms: _41  and  _42
REMARK   19  A    between atoms: _45  and  _47
REMARK   20  A    between atoms: _47  and  _48
REMARK   21  A    between atoms: _47  and  _50
REMARK   22  A    between atoms: _50  and  _51
REMARK   23  A    between atoms: _54  and  _56
REMARK   24  A    between atoms: _56  and  _57
REMARK   25  A    between atoms: _59  and  _61
REMARK   26  A    between atoms: _61  and  _62
REMARK   27  A    between atoms: _65  and  _67
REMARK   28  A    between atoms: _67  and  _68
REMARK   29  A    between atoms: _67  and  _70
REMARK   30  A    between atoms: _70  and  _71
REMARK   31  A    between atoms: _74  and  _76
REMARK   32  A    between atoms: _76  and  _77
REMARK   33  A    between atoms: _76  and  _79
REMARK   34  A    between atoms: _79  and  _80
REMARK   35  A    between atoms: _83  and  _85
REMARK   36  A    between atoms: _85  and  _86
REMARK   37  A    between atoms: _85  and  _88
REMARK   38  A    between atoms: _88  and  _89
REMARK   39  A    between atoms: _92  and  _94
REMARK   40  A    between atoms: _94  and  _95
REMARK   41  A    between atoms: _94  and  _97
REMARK   42  A    between atoms: _100  and  _102
REMARK   43  A    between atoms: _102  and  _103
REMARK   44  A    between atoms: _102  and  _105
REMARK   45  A    between atoms: _105  and  _106
REMARK   46  A    between atoms: _109  and  _111
REMARK   47  A    between atoms: _111  and  _112
REMARK   48  A    between atoms: _115  and  _117
REMARK   49  A    between atoms: _117  and  _118
REMARK   50  A    between atoms: _120  and  _122
REMARK   51  A    between atoms: _122  and  _123
REMARK   52  A    between atoms: _122  and  _125
REMARK   53  A    between atoms: _125  and  _126
REMARK   54  A    between atoms: _129  and  _131
REMARK   55  A    between atoms: _131  and  _132
REMARK   56  A    between atoms: _134  and  _136
REMARK   57  A    between atoms: _136  and  _137
REMARK   58  A    between atoms: _139  and  _141
REMARK   59  A    between atoms: _141  and  _142
REMARK   60  A    between atoms: _141  and  _144
REMARK   61  A    between atoms: _147  and  _149
REMARK   62  A    between atoms: _149  and  _150
REMARK   63  A    between atoms: _149  and  _152
REMARK   64  A    between atoms: _152  and  _153
REMARK   65  A    between atoms: _156  and  _158
REMARK   66  A    between atoms: _158  and  _159
REMARK   67  A    between atoms: _158  and  _161
REMARK   68  A    between atoms: _161  and  _162
REMARK   69  A    between atoms: _166  and  _167
REMARK   70  A    between atoms: _172  and  _174
REMARK   71  A    between atoms: _174  and  _175
REMARK   72  A    between atoms: _178  and  _180
REMARK   73  A    between atoms: _180  and  _181
REMARK   74  A    between atoms: _180  and  _183
REMARK   75  A    between atoms: _183  and  _184
REMARK   76  A    between atoms: _189  and  _191
REMARK   77  A    between atoms: _191  and  _192
REMARK   78  A    between atoms: _191  and  _194
REMARK   79  A    between atoms: _197  and  _199
REMARK   80  A    between atoms: _199  and  _200
REMARK   81  A    between atoms: _199  and  _202
REMARK   82  A    between atoms: _202  and  _203
REMARK   83  A    between atoms: _206  and  _208
REMARK   84  A    between atoms: _208  and  _209
REMARK   85  A    between atoms: _211  and  _213
REMARK   86  A    between atoms: _213  and  _214
REMARK   87  A    between atoms: _213  and  _216
REMARK   88  A    between atoms: _216  and  _217
REMARK   89  A    between atoms: _217  and  _218
REMARK   90  A    between atoms: _218  and  _219
REMARK   91  A    between atoms: _228  and  _230
REMARK   92  A    between atoms: _230  and  _231
REMARK   93  A    between atoms: _230  and  _233
REMARK   94  A    between atoms: _233  and  _234
REMARK   95  A    between atoms: _239  and  _241
REMARK   96  A    between atoms: _241  and  _242
REMARK   97  A    between atoms: _241  and  _244
REMARK   98  A    between atoms: _244  and  _245
REMARK   99  A    between atoms: _245  and  _246
REMARK  100  A    between atoms: _246  and  _247
REMARK  101  A    between atoms: _256  and  _258
REMARK  102  A    between atoms: _258  and  _259
REMARK  103  A    between atoms: _258  and  _261
REMARK  104  A    between atoms: _261  and  _262
REMARK  105  A    between atoms: _265  and  _267
REMARK  106  A    between atoms: _267  and  _268
REMARK  107  A    between atoms: _267  and  _270
REMARK  108  A    between atoms: _270  and  _271
REMARK  109  A    between atoms: _274  and  _276
REMARK  110  A    between atoms: _276  and  _277
REMARK  111  A    between atoms: _276  and  _279
REMARK  112  A    between atoms: _279  and  _280
REMARK  113  A    between atoms: _283  and  _285
REMARK  114  A    between atoms: _285  and  _286
REMARK  115  A    between atoms: _285  and  _288
REMARK  116  A    between atoms: _288  and  _289
REMARK  117  A    between atoms: _292  and  _294
REMARK  118  A    between atoms: _294  and  _295
REMARK  119  A    between atoms: _297  and  _299
REMARK  120  A    between atoms: _299  and  _300
REMARK  121  A    between atoms: _303  and  _305
REMARK  122  A    between atoms: _305  and  _306
REMARK  123  A    between atoms: _305  and  _308
REMARK  124  A    between atoms: _308  and  _309
REMARK  125  A    between atoms: _312  and  _314
REMARK  126  A    between atoms: _314  and  _315
REMARK  127  A    between atoms: _314  and  _317
REMARK  128  A    between atoms: _317  and  _318
REMARK  129  A    between atoms: _321  and  _323
REMARK  130  A    between atoms: _323  and  _324
REMARK  131  A    between atoms: _323  and  _326
REMARK  132  A    between atoms: _326  and  _327
REMARK  133  A    between atoms: _330  and  _332
REMARK  134  A    between atoms: _332  and  _333
REMARK  135  A    between atoms: _332  and  _335
REMARK  136  A    between atoms: _338  and  _340
REMARK  137  A    between atoms: _340  and  _341
REMARK  138  A    between atoms: _340  and  _343
REMARK  139  A    between atoms: _343  and  _344
REMARK  140  A    between atoms: _347  and  _349
REMARK  141  A    between atoms: _349  and  _350
REMARK  142  A    between atoms: _349  and  _352
REMARK  143  A    between atoms: _352  and  _353
REMARK  144  A    between atoms: _353  and  _354
REMARK  145  A    between atoms: _356  and  _358
REMARK  146  A    between atoms: _358  and  _359
REMARK  147  A    between atoms: _358  and  _361
REMARK  148  A    between atoms: _361  and  _362
REMARK  149  A    between atoms: _365  and  _367
REMARK  150  A    between atoms: _367  and  _368
REMARK  151  A    between atoms: _371  and  _373
REMARK  152  A    between atoms: _373  and  _374
REMARK  153  A    between atoms: _376  and  _378
REMARK  154  A    between atoms: _378  and  _379
REMARK  155  A    between atoms: _378  and  _381
REMARK  156  A    between atoms: _381  and  _382
REMARK  157  A    between atoms: _385  and  _387
REMARK  158  A    between atoms: _387  and  _388
REMARK  159  A    between atoms: _390  and  _392
REMARK  160  A    between atoms: _392  and  _393
REMARK  161  A    between atoms: _395  and  _397
REMARK  162  A    between atoms: _397  and  _398
REMARK  163  A    between atoms: _397  and  _400
REMARK  164  A    between atoms: _400  and  _401
REMARK  165  A    between atoms: _407  and  _409
REMARK  166  A    between atoms: _409  and  _410
REMARK  167  A    between atoms: _409  and  _412
REMARK  168  A    between atoms: _415  and  _417
REMARK  169  A    between atoms: _417  and  _418
REMARK  170  A    between atoms: _417  and  _420
REMARK  171  A    between atoms: _423  and  _425
REMARK  172  A    between atoms: _425  and  _426
REMARK  173  A    between atoms: _425  and  _428
REMARK  174  A    between atoms: _428  and  _429
REMARK  175  A    between atoms: _432  and  _434
REMARK  176  A    between atoms: _434  and  _435
REMARK  177  A    between atoms: _434  and  _437
REMARK  178  A    between atoms: _437  and  _438
REMARK  179  A    between atoms: _442  and  _443
REMARK  180  A    between atoms: _448  and  _450
REMARK  181  A    between atoms: _450  and  _451
REMARK  182  A    between atoms: _454  and  _456
REMARK  183  A    between atoms: _456  and  _457
REMARK  184  A    between atoms: _456  and  _459
REMARK  185  A    between atoms: _459  and  _460
REMARK  186  A    between atoms: _465  and  _467
REMARK  187  A    between atoms: _467  and  _468
REMARK  188  A    between atoms: _467  and  _470
REMARK  189  A    between atoms: _473  and  _475
REMARK  190  A    between atoms: _475  and  _476
REMARK  191  A    between atoms: _475  and  _478
REMARK  192  A    between atoms: _478  and  _479
REMARK  193  A    between atoms: _482  and  _484
REMARK  194  A    between atoms: _484  and  _485
REMARK  195  A    between atoms: _487  and  _489
REMARK  196  A    between atoms: _489  and  _490
REMARK  197  A    between atoms: _489  and  _492
REMARK  198  A    between atoms: _492  and  _493
REMARK  199  A    between atoms: _493  and  _494
REMARK  200  A    between atoms: _494  and  _495
REMARK  201  A    between atoms: _504  and  _506
REMARK  202  A    between atoms: _506  and  _507
REMARK  203  A    between atoms: _506  and  _509
REMARK  204  A    between atoms: _509  and  _510
REMARK                            x       y       z     vdW  Elec       q    Type
REMARK                         _______ _______ _______ _____ _____    ______ ____
ROOT
ATOM      1  CA  LEU A   1     -12.501  -7.743 -29.249  0.00  0.00    +0.133 C 
ENDROOT
BRANCH   1   2
ATOM      2  N   LEU A   1     -13.538  -7.186 -28.381  0.00  0.00    -0.239 NA
ATOM      3  H   LEU A   1     -13.268  -6.709 -27.497  0.00  0.00    +0.142 HD
ENDBRANCH   1   2
BRANCH   1   4
ATOM      4  C   LEU A   1     -12.144  -9.124 -28.764  0.00  0.00    +0.224 C 
ATOM      5  O   LEU A   1     -11.728  -9.291 -27.613  0.00  0.00    -0.287 OA
ENDBRANCH   1   4
BRANCH   1   6
ATOM      6  CB  LEU A   1     -11.269  -6.820 -29.267  0.00  0.00    +0.025 C 
BRANCH   6   7
ATOM      7  CG  LEU A   1     -11.587  -5.355 -29.593  0.00  0.00    +0.002 C 
ATOM      8  CD2 LEU A   1     -10.342  -4.464 -29.553  0.00  0.00    +0.000 C 
ATOM      9  CD1 LEU A   1     -12.255  -5.267 -30.956  0.00  0.00    +0.000 C 
ENDBRANCH   6   7
ENDBRANCH   1   6
TORSDOF 4
REMARK  Name = ../refined-set-2016/3t3c/3t3c_pocket.pdb
REMARK  204 active torsions:
REMARK  status: ('A' for Active; 'I' for Inactive)
REMARK    1  A    between atoms: _1  and  _3
REMARK    2  A    between atoms: _3  and  _4
REMARK    3  A    between atoms: _3  and  _6
REMARK    4  A    between atoms: _6  and  _7
REMARK    5  A    between atoms: _7  and  _8
REMARK    6  A    between atoms: _8  and  _9
REMARK    7  A    between atoms: _18  and  _20
REMARK    8  A    between atoms: _20  and  _21
REMARK    9  A    between atoms: _20  and  _23
REMARK   10  A    between atoms: _23  and  _24
REMARK   11  A    between atoms: _27  and  _29
REMARK   12  A    between atoms: _29  and  _30
REMARK   13  A    between atoms: _29  and  _32
REMARK   14  A    between atoms: _32  and  _33
REMARK   15  A    between atoms: _36  and  _38
REMARK   16  A    between atoms: _38  and  _39
REMARK   17  A    between atoms: _38  and  _41
REMARK   18  A    between atoms: _41  and  _42
REMARK   19  A    between atoms: _45  and  _47
REMARK   20  A    between atoms: _47  and  _48
REMARK   21  A    between atoms: _47  and  _50
REMARK   22  A    between atoms: _50  and  _51
REMARK   23  A    between atoms: _54  and  _56
REMARK   24  A    between atoms: _56  and  _57
REMARK   25  A    between atoms: _59  and  _61
REMARK   26  A    between atoms: _61  and  _62
REMARK   27  A    between atoms: _65  and  _67
REMARK   28  A    between atoms: _67  and  _68
REMARK   29  A    between atoms: _67  and  _70
REMARK   30  A    between atoms: _70  and  _71
REMARK   31  A    between atoms: _74  and  _76
REMARK   32  A    between atoms: _76  and  _77
REMARK   33  A    between atoms: _76  and  _79
REMARK   34  A    between atoms: _79  and  _80
REMARK   35  A    between atoms: _83  and  _85
REMARK   36  A    between atoms: _85  and  _86
REMARK   37  A    between atoms: _85  and  _88
REMARK   38  A    between atoms: _88  and  _89
REMARK   39  A    between atoms: _92  and  _94
REMARK   40  A    between atoms: _94  and  _95
REMARK   41  A    between atoms: _94  and  _97
REMARK   42  A    between atoms: _100  and  _102
REMARK   43  A    between atoms: _102  and  _103
REMARK   44  A    between atoms: _102  and  _105
REMARK   45  A    between atoms: _105  and  _106
REMARK   46  A    between atoms: _109  and  _111
REMARK   47  A    between atoms: _111  and  _112
REMARK   48  A    between atoms: _115  and  _117
REMARK   49  A    between atoms: _117  and  _118
REMARK   50  A    between atoms: _120  and  _122
REMARK   51  A    between atoms: _122  and  _123
REMARK   52  A    between atoms: _122  and  _125
REMARK   53  A    between atoms: _125  and  _126
REMARK   54  A    between atoms: _129  and  _131
REMARK   55  A    between atoms: _131  and  _132
REMARK   56  A    between atoms: _134  and  _136
REMARK   57  A    between atoms: _136  and  _137
REMARK   58  A    between atoms: _139  and  _141
REMARK   59  A    between atoms: _141  and  _142
REMARK   60  A    between atoms: _141  and  _144
REMARK   61  A    between atoms: _147  and  _149
REMARK   62  A    between atoms: _149  and  _150
REMARK   63  A    between atoms: _149  and  _152
REMARK   64  A    between atoms: _152  and  _153
REMARK   65  A    between atoms: _156  and  _158
REMARK   66  A    between atoms: _158  and  _159
REMARK   67  A    between atoms: _158  and  _161
REMARK   68  A    between atoms: _161  and  _162
REMARK   69  A    between atoms: _166  and  _167
REMARK   70  A    between atoms: _172  and  _174
REMARK   71  A    between atoms: _174  and  _175
REMARK   72  A    between atoms: _178  and  _180
REMARK   73  A    between atoms: _180  and  _181
REMARK   74  A    between atoms: _180  and  _183
REMARK   75  A    between atoms: _183  and  _184
REMARK   76  A    between atoms: _189  and  _191
REMARK   77  A    between atoms: _191  and  _192
REMARK   78  A    between atoms: _191  and  _194
REMARK   79  A    between atoms: _197  and  _199
REMARK   80  A    between atoms: _199  and  _200
REMARK   81  A    between atoms: _199  and  _202
REMARK   82  A    between atoms: _202  and  _203
REMARK   83  A    between atoms: _206  and  _208
REMARK   84  A    between atoms: _208  and  _209
REMARK   85  A    between atoms: _211  and  _213
REMARK   86  A    between atoms: _213  and  _214
REMARK   87  A    between atoms: _213  and  _216
REMARK   88  A    between atoms: _216  and  _217
REMARK   89  A    between atoms: _217  and  _218
REMARK   90  A    between atoms: _218  and  _219
REMARK   91  A    between atoms: _228  and  _230
REMARK   92  A    between atoms: _230  and  _231
REMARK   93  A    between atoms: _230  and  _233
REMARK   94  A    between atoms: _233  and  _234
REMARK   95  A    between atoms: _239  and  _241
REMARK   96  A    between atoms: _241  and  _242
REMARK   97  A    between atoms: _241  and  _244
REMARK   98  A    between atoms: _244  and  _245
REMARK   99  A    between atoms: _245  and  _246
REMARK  100  A    between atoms: _246  and  _247
REMARK  101  A    between atoms: _256  and  _258
REMARK  102  A    between atoms: _258  and  _259
REMARK  103  A    between atoms: _258  and  _261
REMARK  104  A    between atoms: _261  and  _262
REMARK  105  A    between atoms: _265  and  _267
REMARK  106  A    between atoms: _267  and  _268
REMARK  107  A    between atoms: _267  and  _270
REMARK  108  A    between atoms: _270  and  _271
REMARK  109  A    between atoms: _274  and  _276
REMARK  110  A    between atoms: _276  and  _277
REMARK  111  A    between atoms: _276  and  _279
REMARK  112  A    between atoms: _279  and  _280
REMARK  113  A    between atoms: _283  and  _285
REMARK  114  A    between atoms: _285  and  _286
REMARK  115  A    between atoms: _285  and  _288
REMARK  116  A    between atoms: _288  and  _289
REMARK  117  A    between atoms: _292  and  _294
REMARK  118  A    between atoms: _294  and  _295
REMARK  119  A    between atoms: _297  and  _299
REMARK  120  A    between atoms: _299  and  _300
REMARK  121  A    between atoms: _303  and  _305
REMARK  122  A    between atoms: _305  and  _306
REMARK  123  A    between atoms: _305  and  _308
REMARK  124  A    between atoms: _308  and  _309
REMARK  125  A    between atoms: _312  and  _314
REMARK  126  A    between atoms: _314  and  _315
REMARK  127  A    between atoms: _314  and  _317
REMARK  128  A    between atoms: _317  and  _318
REMARK  129  A    between atoms: _321  and  _323
REMARK  130  A    between atoms: _323  and  _324
REMARK  131  A    between atoms: _323  and  _326
REMARK  132  A    between atoms: _326  and  _327
REMARK  133  A    between atoms: _330  and  _332
REMARK  134  A    between atoms: _332  and  _333
REMARK  135  A    between atoms: _332  and  _335
REMARK  136  A    between atoms: _338  and  _340
REMARK  137  A    between atoms: _340  and  _341
REMARK  138  A    between atoms: _340  and  _343
REMARK  139  A    between atoms: _343  and  _344
REMARK  140  A    between atoms: _347  and  _349
REMARK  141  A    between atoms: _349  and  _350
REMARK  142  A    between atoms: _349  and  _352
REMARK  143  A    between atoms: _352  and  _353
REMARK  144  A    between atoms: _353  and  _354
REMARK  145  A    between atoms: _356  and  _358
REMARK  146  A    between atoms: _358  and  _359
REMARK  147  A    between atoms: _358  and  _361
REMARK  148  A    between atoms: _361  and  _362
REMARK  149  A    between atoms: _365  and  _367
REMARK  150  A    between atoms: _367  and  _368
REMARK  151  A    between atoms: _371  and  _373
REMARK  152  A    between atoms: _373  and  _374
REMARK  153  A    between atoms: _376  and  _378
REMARK  154  A    between atoms: _378  and  _379
REMARK  155  A    between atoms: _378  and  _381
REMARK  156  A    between atoms: _381  and  _382
REMARK  157  A    between atoms: _385  and  _387
REMARK  158  A    between atoms: _387  and  _388
REMARK  159  A    between atoms: _390  and  _392
REMARK  160  A    between atoms: _392  and  _393
REMARK  161  A    between atoms: _395  and  _397
REMARK  162  A    between atoms: _397  and  _398
REMARK  163  A    between atoms: _397  and  _400
REMARK  164  A    between atoms: _400  and  _401
REMARK  165  A    between atoms: _407  and  _409
REMARK  166  A    between atoms: _409  and  _410
REMARK  167  A    between atoms: _409  and  _412
REMARK  168  A    between atoms: _415  and  _417
REMARK  169  A    between atoms: _417  and  _418
REMARK  170  A    between atoms: _417  and  _420
REMARK  171  A    between atoms: _423  and  _425
REMARK  172  A    between atoms: _425  and  _426
REMARK  173  A    between atoms: _425  and  _428
REMARK  174  A    between atoms: _428  and  _429
REMARK  175  A    between atoms: _432  and  _434
REMARK  176  A    between atoms: _434  and  _435
REMARK  177  A    between atoms: _434  and  _437
REMARK  178  A    between atoms: _437  and  _438
REMARK  179  A    between atoms: _442  and  _443
REMARK  180  A    between atoms: _448  and  _450
REMARK  181  A    between atoms: _450  and  _451
REMARK  182  A    between atoms: _454  and  _456
REMARK  183  A    between atoms: _456  and  _457
REMARK  184  A    between atoms: _456  and  _459
REMARK  185  A    between atoms: _459  and  _460
REMARK  186  A    between atoms: _465  and  _467
REMARK  187  A    between atoms: _467  and  _468
REMARK  188  A    between atoms: _467  and  _470
REMARK  189  A    between atoms: _473  and  _475
REMARK  190  A    between atoms: _475  and  _476
REMARK  191  A    between atoms: _475  and  _478
REMARK  192  A    between atoms: _478  and  _479
REMARK  193  A    between atoms: _482  and  _484
REMARK  194  A    between atoms: _484  and  _485
REMARK  195  A    between atoms: _487  and  _489
REMARK  196  A    between atoms: _489  and  _490
REMARK  197  A    between atoms: _489  and  _492
REMARK  198  A    between atoms: _492  and  _493
REMARK  199  A    between atoms: _493  and  _494
REMARK  200  A    between atoms: _494  and  _495
REMARK  201  A    between atoms: _504  and  _506
REMARK  202  A    between atoms: _506  and  _507
REMARK  203  A    between atoms: _506  and  _509
REMARK  204  A    between atoms: _509  and  _510
REMARK                            x       y       z     vdW  Elec       q    Type
REMARK                         _______ _______ _______ _____ _____    ______ ____
ROOT
ATOM      1  C   VAL A   5     -11.335  -6.310 -20.199  0.00  0.00    +0.241 C 
ATOM      2  N   ILE A   6     -11.951  -5.558 -19.289  0.00  0.00    -0.297 N 
ATOM      3  H   ILE A   6     -11.728  -5.705 -18.284  0.00  0.00    +0.150 HD
ATOM      4  O   VAL A   5     -11.694  -6.402 -21.365  0.00  0.00    -0.273 OA
ENDROOT
BRANCH   2   5
ATOM      5  CA  ILE A   6     -12.919  -4.544 -19.647  0.00  0.00    +0.149 C 
BRANCH   5   6
ATOM      6  C   ILE A   6     -12.174  -3.228 -19.752  0.00  0.00    +0.241 C 
ATOM      7  O   ILE A   6     -11.465  -2.831 -18.820  0.00  0.00    -0.273 OA
ATOM      8  N   GLY A   7     -12.336  -2.564 -20.891  0.00  0.00    -0.295 N 
ATOM      9  H   GLY A   7     -12.960  -2.963 -21.621  0.00  0.00    +0.150 HD
BRANCH   8  10
ATOM     10  CA  GLY A   7     -11.675  -1.306 -21.149  0.00  0.00    +0.176 C 
BRANCH  10  11
ATOM     11  C   GLY A   7     -12.637  -0.149 -20.970  0.00  0.00    +0.243 C 
ATOM     12  O   GLY A   7     -13.771  -0.337 -20.534  0.00  0.00    -0.273 OA
ATOM     13  N   ARG A   8     -12.180   1.049 -21.316  0.00  0.00    -0.297 N 
ATOM     14  H   ARG A   8     -11.246   1.120 -21.768  0.00  0.00    +0.150 HD
BRANCH  13  15
ATOM     15  CA  ARG A   8     -12.950   2.276 -21.082  0.00  0.00    +0.149 C 
BRANCH  15  16
ATOM     16  C   ARG A   8     -14.179   2.368 -21.948  0.00  0.00    +0.241 C 
ATOM     17  O   ARG A   8     -15.118   3.068 -21.586  0.00  0.00    -0.273 OA
ATOM     18  N   ASN A   9     -14.177   1.679 -23.095  0.00  0.00    -0.298 N 
ATOM     19  H   ASN A   9     -13.330   1.139 -23.363  0.00  0.00    +0.150 HD
BRANCH  18  20
ATOM     20  CA  ASN A   9     -15.339   1.670 -23.978  0.00  0.00    +0.146 C 
BRANCH  20  21
ATOM     21  C   ASN A   9     -16.609   1.283 -23.209  0.00  0.00    +0.227 C 
ATOM     22  O   ASN A   9     -17.694   1.812 -23.471  0.00  0.00    -0.286 OA
ENDBRANCH  20  21
BRANCH  20  23
ATOM     23  CB  ASN A   9     -15.107   0.779 -25.218  0.00  0.00    +0.112 C 
BRANCH  23  24
ATOM     24  CG  ASN A   9     -15.163  -0.720 -24.912  0.00  0.00    +0.222 C 
ATOM     25  OD1 ASN A   9     -14.453  -1.223 -24.043  0.00  0.00    -0.275 OA
ATOM     26  ND2 ASN A   9     -15.983  -1.438 -25.656  0.00  0.00    -0.329 N 
ATOM     27 HD21 ASN A   9     -16.045  -2.467 -25.517  0.00  0.00    +0.145 HD
ATOM     28 HD22 ASN A   9     -16.567  -0.975 -26.381  0.00  0.00    +0.145 HD
ENDBRANCH  23  24
ENDBRANCH  20  23
ENDBRANCH  18  20
ENDBRANCH  15  16
BRANCH  15  29
ATOM     29  CB  ARG A   8     -12.081   3.512 -21.304  0.00  0.00    +0.033 C 
BRANCH  29  30
ATOM     30  CG  ARG A   8     -10.970   3.683 -20.284  0.00  0.00    +0.045 C 
BRANCH  30  31
ATOM     31  CD  ARG A   8     -10.233   5.012 -20.464  0.00  0.00    +0.174 C 
BRANCH  31  32
ATOM     32  NE  ARG A   8      -9.577   5.086 -21.774  0.00  0.00    -0.265 N 
ATOM     33  HE  ARG A   8      -8.660   4.609 -21.886  0.00  0.00    +0.259 HD
ATOM     34  CZ  ARG A   8     -10.080   5.725 -22.831  0.00  0.00    +0.342 C 
ATOM     35  NH2 ARG A   8     -11.237   6.368 -22.721  0.00  0.00    -0.292 N 
ATOM     36 HH21 ARG A   8     -11.746   6.371 -21.814  0.00  0.00    +0.255 HD
ATOM     37 HH22 ARG A   8     -11.634   6.868 -23.542  0.00  0.00    +0.255 HD
ATOM     38  NH1 ARG A   8      -9.423   5.736 -23.994  0.00  0.00    -0.292 N 
ATOM     39 HH11 ARG A   8      -8.511   5.243 -24.081  0.00  0.00    +0.255 HD
ATOM     40 HH12 ARG A   8      -9.823   6.237 -24.813  0.00  0.00    +0.255 HD
ENDBRANCH  31  32
ENDBRANCH  30  31
ENDBRANCH  29  30
ENDBRANCH  15  29
ENDBRANCH  13  15
ENDBRANCH  10  11
ENDBRANCH   8  10
ENDBRANCH   5   6
BRANCH   5  41
ATOM     41  CB  ILE A   6     -14.046  -4.414 -18.571  0.00  0.00    +0.027 C 
ATOM     42  CG2 ILE A   6     -15.119  -3.454 -19.033  0.00  0.00    +0.002 C 
BRANCH  41  43
ATOM     43  CG1 ILE A   6     -14.668  -5.785 -18.262  0.00  0.00    +0.002 C 
ATOM     44  CD1 ILE A   6     -15.380  -6.438 -19.441  0.00  0.00    +0.000 C 
ENDBRANCH  41  43
ENDBRANCH   5  41
ENDBRANCH   2   5
BRANCH   1  45
ATOM     45  CA  VAL A   5     -10.114  -7.062 -19.711  0.00  0.00    +0.149 C 
BRANCH  45  48
ATOM     46  C   ASN A   4     -10.037  -9.473 -19.466  0.00  0.00    +0.241 C 
ATOM     47  O   ASN A   4     -10.245  -9.377 -18.256  0.00  0.00    -0.273 OA
ATOM     48  N   VAL A   5     -10.036  -8.415 -20.266  0.00  0.00    -0.297 N 
ATOM     49  H   VAL A   5      -9.979  -8.547 -21.296  0.00  0.00    +0.150 HD
BRANCH  46  50
ATOM     50  CA  ASN A   4      -9.709 -10.831 -20.103  0.00  0.00    +0.158 C 
BRANCH  50  52
ATOM     51  C   ALA A   3      -7.286 -10.822 -19.889  0.00  0.00    +0.241 C 
ATOM     52  N   ASN A   4      -8.475 -11.291 -19.517  0.00  0.00    -0.297 N 
ATOM     53  H   ASN A   4      -8.515 -12.018 -18.774  0.00  0.00    +0.150 HD
ATOM     54  O   ALA A   3      -7.115 -10.018 -20.815  0.00  0.00    -0.273 OA
BRANCH  51  55
ATOM     55  CA  ALA A   3      -6.106 -11.343 -19.106  0.00  0.00    +0.149 C 
ATOM     56  CB  ALA A   3      -5.744 -10.361 -17.982  0.00  0.00    +0.031 C 
BRANCH  55  59
ATOM     57  C   PRO A   2      -4.104 -12.540 -19.853  0.00  0.00    +0.241 C 
ATOM     58  O   PRO A   2      -4.086 -13.236 -18.843  0.00  0.00    -0.273 OA
ATOM     59  N   ALA A   3      -4.980 -11.549 -20.027  0.00  0.00    -0.297 N 
ATOM     60  H   ALA A   3      -4.863 -10.906 -20.836  0.00  0.00    +0.150 HD
BRANCH  57  63
ATOM     61  C   THR A   1      -4.352 -12.453 -23.015  0.00  0.00    +0.244 C 
ATOM     62  N   PRO A   2      -3.336 -12.050 -22.220  0.00  0.00    -0.272 N 
ATOM     63  CA  PRO A   2      -3.057 -12.777 -20.970  0.00  0.00    +0.152 C 
ATOM     64  CB  PRO A   2      -1.689 -12.216 -20.548  0.00  0.00    +0.031 C 
ATOM     65  CG  PRO A   2      -1.686 -10.835 -21.074  0.00  0.00    +0.024 C 
ATOM     66  CD  PRO A   2      -2.378 -10.944 -22.425  0.00  0.00    +0.094 C 
ATOM     67  O   THR A   1      -5.036 -13.432 -22.754  0.00  0.00    -0.273 OA
BRANCH  61  68
ATOM     68  CA  THR A   1      -4.644 -11.643 -24.287  0.00  0.00    +0.172 C 
BRANCH  68  69
ATOM     69  N   THR A   1      -5.027 -12.578 -25.343  0.00  0.00    -0.236 NA
ATOM     70  H   THR A   1      -5.469 -13.477 -25.065  0.00  0.00    +0.142 HD
ENDBRANCH  68  69
BRANCH  68  71
ATOM     71  CB  THR A   1      -5.777 -10.619 -24.014  0.00  0.00    +0.135 C 
ATOM     72  CG2 THR A   1      -7.144 -11.310 -23.815  0.00  0.00    +0.034 C 
BRANCH  71  73
ATOM     73  OG1 THR A   1      -5.435  -9.840 -22.862  0.00  0.00    -0.383 OA
ATOM     74  HG1 THR A   1      -5.330 -10.438 -22.080  0.00  0.00    +0.210 HD
ENDBRANCH  71  73
ENDBRANCH  68  71
ENDBRANCH  61  68
ENDBRANCH  57  63
ENDBRANCH  55  59
ENDBRANCH  51  55
ENDBRANCH  50  52
BRANCH  50  75
ATOM     75  CB  ASN A   4     -10.836 -11.861 -19.891  0.00  0.00    +0.114 C 
BRANCH  75  76
ATOM     76  CG  ASN A   4     -10.504 -13.240 -20.473  0.00  0.00    +0.222 C 
ATOM     77  ND2 ASN A   4     -10.789 -14.276 -19.704  0.00  0.00    -0.329 N 
ATOM     78 HD21 ASN A   4     -11.203 -14.126 -18.762  0.00  0.00    +0.145 HD
ATOM     79 HD22 ASN A   4     -10.599 -15.241 -20.041  0.00  0.00    +0.145 HD
ATOM     80  OD1 ASN A   4     -10.012 -13.372 -21.597  0.00  0.00    -0.275 OA
ENDBRANCH  75  76
ENDBRANCH  50  75
ENDBRANCH  46  50
ENDBRANCH  45  48
BRANCH  45  81
ATOM     81  CB  VAL A   5      -8.844  -6.202 -20.022  0.00  0.00    +0.027 C 
ATOM     82  CG2 VAL A   5      -7.594  -6.779 -19.310  0.00  0.00    +0.002 C 
ATOM     83  CG1 VAL A   5      -8.611  -6.077 -21.547  0.00  0.00    +0.002 C 
ENDBRANCH  45  81
ENDBRANCH   1  45
TORSDOF 30
REMARK  Name = ../refined-set-2016/3t3c/3t3c_pocket.pdb
REMARK  204 active torsions:
REMARK  status: ('A' for Active; 'I' for Inactive)
REMARK    1  A    between atoms: _1  and  _3
REMARK    2  A    between atoms: _3  and  _4
REMARK    3  A    between atoms: _3  and  _6
REMARK    4  A    between atoms: _6  and  _7
REMARK    5  A    between atoms: _7  and  _8
REMARK    6  A    between atoms: _8  and  _9
REMARK    7  A    between atoms: _18  and  _20
REMARK    8  A    between atoms: _20  and  _21
REMARK    9  A    between atoms: _20  and  _23
REMARK   10  A    between atoms: _23  and  _24
REMARK   11  A    between atoms: _27  and  _29
REMARK   12  A    between atoms: _29  and  _30
REMARK   13  A    between atoms: _29  and  _32
REMARK   14  A    between atoms: _32  and  _33
REMARK   15  A    between atoms: _36  and  _38
REMARK   16  A    between atoms: _38  and  _39
REMARK   17  A    between atoms: _38  and  _41
REMARK   18  A    between atoms: _41  and  _42
REMARK   19  A    between atoms: _45  and  _47
REMARK   20  A    between atoms: _47  and  _48
REMARK   21  A    between atoms: _47  and  _50
REMARK   22  A    between atoms: _50  and  _51
REMARK   23  A    between atoms: _54  and  _56
REMARK   24  A    between atoms: _56  and  _57
REMARK   25  A    between atoms: _59  and  _61
REMARK   26  A    between atoms: _61  and  _62
REMARK   27  A    between atoms: _65  and  _67
REMARK   28  A    between atoms: _67  and  _68
REMARK   29  A    between atoms: _67  and  _70
REMARK   30  A    between atoms: _70  and  _71
REMARK   31  A    between atoms: _74  and  _76
REMARK   32  A    between atoms: _76  and  _77
REMARK   33  A    between atoms: _76  and  _79
REMARK   34  A    between atoms: _79  and  _80
REMARK   35  A    between atoms: _83  and  _85
REMARK   36  A    between atoms: _85  and  _86
REMARK   37  A    between atoms: _85  and  _88
REMARK   38  A    between atoms: _88  and  _89
REMARK   39  A    between atoms: _92  and  _94
REMARK   40  A    between atoms: _94  and  _95
REMARK   41  A    between atoms: _94  and  _97
REMARK   42  A    between atoms: _100  and  _102
REMARK   43  A    between atoms: _102  and  _103
REMARK   44  A    between atoms: _102  and  _105
REMARK   45  A    between atoms: _105  and  _106
REMARK   46  A    between atoms: _109  and  _111
REMARK   47  A    between atoms: _111  and  _112
REMARK   48  A    between atoms: _115  and  _117
REMARK   49  A    between atoms: _117  and  _118
REMARK   50  A    between atoms: _120  and  _122
REMARK   51  A    between atoms: _122  and  _123
REMARK   52  A    between atoms: _122  and  _125
REMARK   53  A    between atoms: _125  and  _126
REMARK   54  A    between atoms: _129  and  _131
REMARK   55  A    between atoms: _131  and  _132
REMARK   56  A    between atoms: _134  and  _136
REMARK   57  A    between atoms: _136  and  _137
REMARK   58  A    between atoms: _139  and  _141
REMARK   59  A    between atoms: _141  and  _142
REMARK   60  A    between atoms: _141  and  _144
REMARK   61  A    between atoms: _147  and  _149
REMARK   62  A    between atoms: _149  and  _150
REMARK   63  A    between atoms: _149  and  _152
REMARK   64  A    between atoms: _152  and  _153
REMARK   65  A    between atoms: _156  and  _158
REMARK   66  A    between atoms: _158  and  _159
REMARK   67  A    between atoms: _158  and  _161
REMARK   68  A    between atoms: _161  and  _162
REMARK   69  A    between atoms: _166  and  _167
REMARK   70  A    between atoms: _172  and  _174
REMARK   71  A    between atoms: _174  and  _175
REMARK   72  A    between atoms: _178  and  _180
REMARK   73  A    between atoms: _180  and  _181
REMARK   74  A    between atoms: _180  and  _183
REMARK   75  A    between atoms: _183  and  _184
REMARK   76  A    between atoms: _189  and  _191
REMARK   77  A    between atoms: _191  and  _192
REMARK   78  A    between atoms: _191  and  _194
REMARK   79  A    between atoms: _197  and  _199
REMARK   80  A    between atoms: _199  and  _200
REMARK   81  A    between atoms: _199  and  _202
REMARK   82  A    between atoms: _202  and  _203
REMARK   83  A    between atoms: _206  and  _208
REMARK   84  A    between atoms: _208  and  _209
REMARK   85  A    between atoms: _211  and  _213
REMARK   86  A    between atoms: _213  and  _214
REMARK   87  A    between atoms: _213  and  _216
REMARK   88  A    between atoms: _216  and  _217
REMARK   89  A    between atoms: _217  and  _218
REMARK   90  A    between atoms: _218  and  _219
REMARK   91  A    between atoms: _228  and  _230
REMARK   92  A    between atoms: _230  and  _231
REMARK   93  A    between atoms: _230  and  _233
REMARK   94  A    between atoms: _233  and  _234
REMARK   95  A    between atoms: _239  and  _241
REMARK   96  A    between atoms: _241  and  _242
REMARK   97  A    between atoms: _241  and  _244
REMARK   98  A    between atoms: _244  and  _245
REMARK   99  A    between atoms: _245  and  _246
REMARK  100  A    between atoms: _246  and  _247
REMARK  101  A    between atoms: _256  and  _258
REMARK  102  A    between atoms: _258  and  _259
REMARK  103  A    between atoms: _258  and  _261
REMARK  104  A    between atoms: _261  and  _262
REMARK  105  A    between atoms: _265  and  _267
REMARK  106  A    between atoms: _267  and  _268
REMARK  107  A    between atoms: _267  and  _270
REMARK  108  A    between atoms: _270  and  _271
REMARK  109  A    between atoms: _274  and  _276
REMARK  110  A    between atoms: _276  and  _277
REMARK  111  A    between atoms: _276  and  _279
REMARK  112  A    between atoms: _279  and  _280
REMARK  113  A    between atoms: _283  and  _285
REMARK  114  A    between atoms: _285  and  _286
REMARK  115  A    between atoms: _285  and  _288
REMARK  116  A    between atoms: _288  and  _289
REMARK  117  A    between atoms: _292  and  _294
REMARK  118  A    between atoms: _294  and  _295
REMARK  119  A    between atoms: _297  and  _299
REMARK  120  A    between atoms: _299  and  _300
REMARK  121  A    between atoms: _303  and  _305
REMARK  122  A    between atoms: _305  and  _306
REMARK  123  A    between atoms: _305  and  _308
REMARK  124  A    between atoms: _308  and  _309
REMARK  125  A    between atoms: _312  and  _314
REMARK  126  A    between atoms: _314  and  _315
REMARK  127  A    between atoms: _314  and  _317
REMARK  128  A    between atoms: _317  and  _318
REMARK  129  A    between atoms: _321  and  _323
REMARK  130  A    between atoms: _323  and  _324
REMARK  131  A    between atoms: _323  and  _326
REMARK  132  A    between atoms: _326  and  _327
REMARK  133  A    between atoms: _330  and  _332
REMARK  134  A    between atoms: _332  and  _333
REMARK  135  A    between atoms: _332  and  _335
REMARK  136  A    between atoms: _338  and  _340
REMARK  137  A    between atoms: _340  and  _341
REMARK  138  A    between atoms: _340  and  _343
REMARK  139  A    between atoms: _343  and  _344
REMARK  140  A    between atoms: _347  and  _349
REMARK  141  A    between atoms: _349  and  _350
REMARK  142  A    between atoms: _349  and  _352
REMARK  143  A    between atoms: _352  and  _353
REMARK  144  A    between atoms: _353  and  _354
REMARK  145  A    between atoms: _356  and  _358
REMARK  146  A    between atoms: _358  and  _359
REMARK  147  A    between atoms: _358  and  _361
REMARK  148  A    between atoms: _361  and  _362
REMARK  149  A    between atoms: _365  and  _367
REMARK  150  A    between atoms: _367  and  _368
REMARK  151  A    between atoms: _371  and  _373
REMARK  152  A    between atoms: _373  and  _374
REMARK  153  A    between atoms: _376  and  _378
REMARK  154  A    between atoms: _378  and  _379
REMARK  155  A    between atoms: _378  and  _381
REMARK  156  A    between atoms: _381  and  _382
REMARK  157  A    between atoms: _385  and  _387
REMARK  158  A    between atoms: _387  and  _388
REMARK  159  A    between atoms: _390  and  _392
REMARK  160  A    between atoms: _392  and  _393
REMARK  161  A    between atoms: _395  and  _397
REMARK  162  A    between atoms: _397  and  _398
REMARK  163  A    between atoms: _397  and  _400
REMARK  164  A    between atoms: _400  and  _401
REMARK  165  A    between atoms: _407  and  _409
REMARK  166  A    between atoms: _409  and  _410
REMARK  167  A    between atoms: _409  and  _412
REMARK  168  A    between atoms: _415  and  _417
REMARK  169  A    between atoms: _417  and  _418
REMARK  170  A    between atoms: _417  and  _420
REMARK  171  A    between atoms: _423  and  _425
REMARK  172  A    between atoms: _425  and  _426
REMARK  173  A    between atoms: _425  and  _428
REMARK  174  A    between atoms: _428  and  _429
REMARK  175  A    between atoms: _432  and  _434
REMARK  176  A    between atoms: _434  and  _435
REMARK  177  A    between atoms: _434  and  _437
REMARK  178  A    between atoms: _437  and  _438
REMARK  179  A    between atoms: _442  and  _443
REMARK  180  A    between atoms: _448  and  _450
REMARK  181  A    between atoms: _450  and  _451
REMARK  182  A    between atoms: _454  and  _456
REMARK  183  A    between atoms: _456  and  _457
REMARK  184  A    between atoms: _456  and  _459
REMARK  185  A    between atoms: _459  and  _460
REMARK  186  A    between atoms: _465  and  _467
REMARK  187  A    between atoms: _467  and  _468
REMARK  188  A    between atoms: _467  and  _470
REMARK  189  A    between atoms: _473  and  _475
REMARK  190  A    between atoms: _475  and  _476
REMARK  191  A    between atoms: _475  and  _478
REMARK  192  A    between atoms: _478  and  _479
REMARK  193  A    between atoms: _482  and  _484
REMARK  194  A    between atoms: _484  and  _485
REMARK  195  A    between atoms: _487  and  _489
REMARK  196  A    between atoms: _489  and  _490
REMARK  197  A    between atoms: _489  and  _492
REMARK  198  A    between atoms: _492  and  _493
REMARK  199  A    between atoms: _493  and  _494
REMARK  200  A    between atoms: _494  and  _495
REMARK  201  A    between atoms: _504  and  _506
REMARK  202  A    between atoms: _506  and  _507
REMARK  203  A    between atoms: _506  and  _509
REMARK  204  A    between atoms: _509  and  _510
REMARK                            x       y       z     vdW  Elec       q    Type
REMARK                         _______ _______ _______ _____ _____    ______ ____
ROOT
ATOM      1  NE  ARG A   1      -5.356   5.970 -25.046  0.00  0.00    -0.265 N 
ATOM      2  HE  ARG A   1      -6.088   5.253 -24.866  0.00  0.00    +0.259 HD
ATOM      3  CZ  ARG A   1      -4.643   5.853 -26.164  0.00  0.00    +0.342 C 
ATOM      4  NH2 ARG A   1      -3.706   6.742 -26.465  0.00  0.00    -0.292 N 
ATOM      5 HH21 ARG A   1      -3.522   7.541 -25.825  0.00  0.00    +0.255 HD
ATOM      6 HH22 ARG A   1      -3.155   6.640 -27.341  0.00  0.00    +0.255 HD
ATOM      7  NH1 ARG A   1      -4.876   4.842 -26.989  0.00  0.00    -0.292 N 
ATOM      8 HH11 ARG A   1      -5.613   4.145 -26.762  0.00  0.00    +0.255 HD
ATOM      9 HH12 ARG A   1      -4.322   4.746 -27.864  0.00  0.00    +0.255 HD
ENDROOT
BRANCH   1  10
ATOM     10  CD  ARG A   1      -5.190   7.023 -24.056  0.00  0.00    +0.174 C 
BRANCH  10  11
ATOM     11  CG  ARG A   1      -6.423   7.109 -23.183  0.00  0.00    +0.045 C 
BRANCH  11  12
ATOM     12  CB  ARG A   1      -6.183   7.929 -21.953  0.00  0.00    +0.029 C 
BRANCH  12  13
ATOM     13  CA  ARG A   1      -7.412   8.077 -21.051  0.00  0.00    +0.133 C 
BRANCH  13  14
ATOM     14  N   ARG A   1      -8.480   8.804 -21.770  0.00  0.00    -0.239 NA
ATOM     15  H   ARG A   1      -8.290   9.161 -22.728  0.00  0.00    +0.142 HD
ENDBRANCH  13  14
BRANCH  13  16
ATOM     16  C   ARG A   1      -7.037   8.816 -19.773  0.00  0.00    +0.224 C 
ATOM     17  O   ARG A   1      -6.830  10.035 -19.807  0.00  0.00    -0.287 OA
ENDBRANCH  13  16
ENDBRANCH  12  13
ENDBRANCH  11  12
ENDBRANCH  10  11
ENDBRANCH   1  10
TORSDOF 6
REMARK  Name = ../refined-set-2016/3t3c/3t3c_pocket.pdb
REMARK  204 active torsions:
REMARK  status: ('A' for Active; 'I' for Inactive)
REMARK    1  A    between atoms: _1  and  _3
REMARK    2  A    between atoms: _3  and  _4
REMARK    3  A    between atoms: _3  and  _6
REMARK    4  A    between atoms: _6  and  _7
REMARK    5  A    between atoms: _7  and  _8
REMARK    6  A    between atoms: _8  and  _9
REMARK    7  A    between atoms: _18  and  _20
REMARK    8  A    between atoms: _20  and  _21
REMARK    9  A    between atoms: _20  and  _23
REMARK   10  A    between atoms: _23  and  _24
REMARK   11  A    between atoms: _27  and  _29
REMARK   12  A    between atoms: _29  and  _30
REMARK   13  A    between atoms: _29  and  _32
REMARK   14  A    between atoms: _32  and  _33
REMARK   15  A    between atoms: _36  and  _38
REMARK   16  A    between atoms: _38  and  _39
REMARK   17  A    between atoms: _38  and  _41
REMARK   18  A    between atoms: _41  and  _42
REMARK   19  A    between atoms: _45  and  _47
REMARK   20  A    between atoms: _47  and  _48
REMARK   21  A    between atoms: _47  and  _50
REMARK   22  A    between atoms: _50  and  _51
REMARK   23  A    between atoms: _54  and  _56
REMARK   24  A    between atoms: _56  and  _57
REMARK   25  A    between atoms: _59  and  _61
REMARK   26  A    between atoms: _61  and  _62
REMARK   27  A    between atoms: _65  and  _67
REMARK   28  A    between atoms: _67  and  _68
REMARK   29  A    between atoms: _67  and  _70
REMARK   30  A    between atoms: _70  and  _71
REMARK   31  A    between atoms: _74  and  _76
REMARK   32  A    between atoms: _76  and  _77
REMARK   33  A    between atoms: _76  and  _79
REMARK   34  A    between atoms: _79  and  _80
REMARK   35  A    between atoms: _83  and  _85
REMARK   36  A    between atoms: _85  and  _86
REMARK   37  A    between atoms: _85  and  _88
REMARK   38  A    between atoms: _88  and  _89
REMARK   39  A    between atoms: _92  and  _94
REMARK   40  A    between atoms: _94  and  _95
REMARK   41  A    between atoms: _94  and  _97
REMARK   42  A    between atoms: _100  and  _102
REMARK   43  A    between atoms: _102  and  _103
REMARK   44  A    between atoms: _102  and  _105
REMARK   45  A    between atoms: _105  and  _106
REMARK   46  A    between atoms: _109  and  _111
REMARK   47  A    between atoms: _111  and  _112
REMARK   48  A    between atoms: _115  and  _117
REMARK   49  A    between atoms: _117  and  _118
REMARK   50  A    between atoms: _120  and  _122
REMARK   51  A    between atoms: _122  and  _123
REMARK   52  A    between atoms: _122  and  _125
REMARK   53  A    between atoms: _125  and  _126
REMARK   54  A    between atoms: _129  and  _131
REMARK   55  A    between atoms: _131  and  _132
REMARK   56  A    between atoms: _134  and  _136
REMARK   57  A    between atoms: _136  and  _137
REMARK   58  A    between atoms: _139  and  _141
REMARK   59  A    between atoms: _141  and  _142
REMARK   60  A    between atoms: _141  and  _144
REMARK   61  A    between atoms: _147  and  _149
REMARK   62  A    between atoms: _149  and  _150
REMARK   63  A    between atoms: _149  and  _152
REMARK   64  A    between atoms: _152  and  _153
REMARK   65  A    between atoms: _156  and  _158
REMARK   66  A    between atoms: _158  and  _159
REMARK   67  A    between atoms: _158  and  _161
REMARK   68  A    between atoms: _161  and  _162
REMARK   69  A    between atoms: _166  and  _167
REMARK   70  A    between atoms: _172  and  _174
REMARK   71  A    between atoms: _174  and  _175
REMARK   72  A    between atoms: _178  and  _180
REMARK   73  A    between atoms: _180  and  _181
REMARK   74  A    between atoms: _180  and  _183
REMARK   75  A    between atoms: _183  and  _184
REMARK   76  A    between atoms: _189  and  _191
REMARK   77  A    between atoms: _191  and  _192
REMARK   78  A    between atoms: _191  and  _194
REMARK   79  A    between atoms: _197  and  _199
REMARK   80  A    between atoms: _199  and  _200
REMARK   81  A    between atoms: _199  and  _202
REMARK   82  A    between atoms: _202  and  _203
REMARK   83  A    between atoms: _206  and  _208
REMARK   84  A    between atoms: _208  and  _209
REMARK   85  A    between atoms: _211  and  _213
REMARK   86  A    between atoms: _213  and  _214
REMARK   87  A    between atoms: _213  and  _216
REMARK   88  A    between atoms: _216  and  _217
REMARK   89  A    between atoms: _217  and  _218
REMARK   90  A    between atoms: _218  and  _219
REMARK   91  A    between atoms: _228  and  _230
REMARK   92  A    between atoms: _230  and  _231
REMARK   93  A    between atoms: _230  and  _233
REMARK   94  A    between atoms: _233  and  _234
REMARK   95  A    between atoms: _239  and  _241
REMARK   96  A    between atoms: _241  and  _242
REMARK   97  A    between atoms: _241  and  _244
REMARK   98  A    between atoms: _244  and  _245
REMARK   99  A    between atoms: _245  and  _246
REMARK  100  A    between atoms: _246  and  _247
REMARK  101  A    between atoms: _256  and  _258
REMARK  102  A    between atoms: _258  and  _259
REMARK  103  A    between atoms: _258  and  _261
REMARK  104  A    between atoms: _261  and  _262
REMARK  105  A    between atoms: _265  and  _267
REMARK  106  A    between atoms: _267  and  _268
REMARK  107  A    between atoms: _267  and  _270
REMARK  108  A    between atoms: _270  and  _271
REMARK  109  A    between atoms: _274  and  _276
REMARK  110  A    between atoms: _276  and  _277
REMARK  111  A    between atoms: _276  and  _279
REMARK  112  A    between atoms: _279  and  _280
REMARK  113  A    between atoms: _283  and  _285
REMARK  114  A    between atoms: _285  and  _286
REMARK  115  A    between atoms: _285  and  _288
REMARK  116  A    between atoms: _288  and  _289
REMARK  117  A    between atoms: _292  and  _294
REMARK  118  A    between atoms: _294  and  _295
REMARK  119  A    between atoms: _297  and  _299
REMARK  120  A    between atoms: _299  and  _300
REMARK  121  A    between atoms: _303  and  _305
REMARK  122  A    between atoms: _305  and  _306
REMARK  123  A    between atoms: _305  and  _308
REMARK  124  A    between atoms: _308  and  _309
REMARK  125  A    between atoms: _312  and  _314
REMARK  126  A    between atoms: _314  and  _315
REMARK  127  A    between atoms: _314  and  _317
REMARK  128  A    between atoms: _317  and  _318
REMARK  129  A    between atoms: _321  and  _323
REMARK  130  A    between atoms: _323  and  _324
REMARK  131  A    between atoms: _323  and  _326
REMARK  132  A    between atoms: _326  and  _327
REMARK  133  A    between atoms: _330  and  _332
REMARK  134  A    between atoms: _332  and  _333
REMARK  135  A    between atoms: _332  and  _335
REMARK  136  A    between atoms: _338  and  _340
REMARK  137  A    between atoms: _340  and  _341
REMARK  138  A    between atoms: _340  and  _343
REMARK  139  A    between atoms: _343  and  _344
REMARK  140  A    between atoms: _347  and  _349
REMARK  141  A    between atoms: _349  and  _350
REMARK  142  A    between atoms: _349  and  _352
REMARK  143  A    between atoms: _352  and  _353
REMARK  144  A    between atoms: _353  and  _354
REMARK  145  A    between atoms: _356  and  _358
REMARK  146  A    between atoms: _358  and  _359
REMARK  147  A    between atoms: _358  and  _361
REMARK  148  A    between atoms: _361  and  _362
REMARK  149  A    between atoms: _365  and  _367
REMARK  150  A    between atoms: _367  and  _368
REMARK  151  A    between atoms: _371  and  _373
REMARK  152  A    between atoms: _373  and  _374
REMARK  153  A    between atoms: _376  and  _378
REMARK  154  A    between atoms: _378  and  _379
REMARK  155  A    between atoms: _378  and  _381
REMARK  156  A    between atoms: _381  and  _382
REMARK  157  A    between atoms: _385  and  _387
REMARK  158  A    between atoms: _387  and  _388
REMARK  159  A    between atoms: _390  and  _392
REMARK  160  A    between atoms: _392  and  _393
REMARK  161  A    between atoms: _395  and  _397
REMARK  162  A    between atoms: _397  and  _398
REMARK  163  A    between atoms: _397  and  _400
REMARK  164  A    between atoms: _400  and  _401
REMARK  165  A    between atoms: _407  and  _409
REMARK  166  A    between atoms: _409  and  _410
REMARK  167  A    between atoms: _409  and  _412
REMARK  168  A    between atoms: _415  and  _417
REMARK  169  A    between atoms: _417  and  _418
REMARK  170  A    between atoms: _417  and  _420
REMARK  171  A    between atoms: _423  and  _425
REMARK  172  A    between atoms: _425  and  _426
REMARK  173  A    between atoms: _425  and  _428
REMARK  174  A    between atoms: _428  and  _429
REMARK  175  A    between atoms: _432  and  _434
REMARK  176  A    between atoms: _434  and  _435
REMARK  177  A    between atoms: _434  and  _437
REMARK  178  A    between atoms: _437  and  _438
REMARK  179  A    between atoms: _442  and  _443
REMARK  180  A    between atoms: _448  and  _450
REMARK  181  A    between atoms: _450  and  _451
REMARK  182  A    between atoms: _454  and  _456
REMARK  183  A    between atoms: _456  and  _457
REMARK  184  A    between atoms: _456  and  _459
REMARK  185  A    between atoms: _459  and  _460
REMARK  186  A    between atoms: _465  and  _467
REMARK  187  A    between atoms: _467  and  _468
REMARK  188  A    between atoms: _467  and  _470
REMARK  189  A    between atoms: _473  and  _475
REMARK  190  A    between atoms: _475  and  _476
REMARK  191  A    between atoms: _475  and  _478
REMARK  192  A    between atoms: _478  and  _479
REMARK  193  A    between atoms: _482  and  _484
REMARK  194  A    between atoms: _484  and  _485
REMARK  195  A    between atoms: _487  and  _489
REMARK  196  A    between atoms: _489  and  _490
REMARK  197  A    between atoms: _489  and  _492
REMARK  198  A    between atoms: _492  and  _493
REMARK  199  A    between atoms: _493  and  _494
REMARK  200  A    between atoms: _494  and  _495
REMARK  201  A    between atoms: _504  and  _506
REMARK  202  A    between atoms: _506  and  _507
REMARK  203  A    between atoms: _506  and  _509
REMARK  204  A    between atoms: _509  and  _510
REMARK                            x       y       z     vdW  Elec       q    Type
REMARK                         _______ _______ _______ _____ _____    ______ ____
ROOT
ATOM      1  C   ALA A   6      -0.724  -3.194 -13.238  0.00  0.00    +0.241 C 
ATOM      2  O   ALA A   6      -1.076  -2.421 -12.342  0.00  0.00    -0.273 OA
ATOM      3  N   ASP A   7      -0.116  -4.350 -12.996  0.00  0.00    -0.297 N 
ATOM      4  H   ASP A   7       0.102  -4.985 -13.790  0.00  0.00    +0.150 HD
ENDROOT
BRANCH   1   5
ATOM      5  CA  ALA A   6      -1.031  -2.875 -14.690  0.00  0.00    +0.149 C 
ATOM      6  CB  ALA A   6      -0.253  -1.631 -15.174  0.00  0.00    +0.031 C 
BRANCH   5   8
ATOM      7  C   GLY A   5      -3.269  -3.646 -15.302  0.00  0.00    +0.243 C 
ATOM      8  N   ALA A   6      -2.480  -2.679 -14.849  0.00  0.00    -0.297 N 
ATOM      9  H   ALA A   6      -2.897  -1.759 -14.600  0.00  0.00    +0.150 HD
ATOM     10  O   GLY A   5      -2.840  -4.759 -15.601  0.00  0.00    -0.273 OA
BRANCH   7  11
ATOM     11  CA  GLY A   5      -4.751  -3.326 -15.435  0.00  0.00    +0.176 C 
BRANCH  11  14
ATOM     12  C   THR A   4      -5.358  -1.967 -13.519  0.00  0.00    +0.243 C 
ATOM     13  O   THR A   4      -5.364  -2.958 -12.772  0.00  0.00    -0.273 OA
ATOM     14  N   GLY A   5      -5.115  -2.054 -14.830  0.00  0.00    -0.295 N 
ATOM     15  H   GLY A   5      -5.187  -1.203 -15.424  0.00  0.00    +0.150 HD
BRANCH  12  16
ATOM     16  CA  THR A   4      -5.645  -0.573 -12.967  0.00  0.00    +0.176 C 
BRANCH  16  19
ATOM     17  C   ASP A   3      -3.966   0.769 -14.139  0.00  0.00    +0.241 C 
ATOM     18  O   ASP A   3      -3.036   0.134 -13.629  0.00  0.00    -0.273 OA
ATOM     19  N   THR A   4      -5.247   0.499 -13.887  0.00  0.00    -0.295 N 
ATOM     20  H   THR A   4      -5.984   1.063 -14.355  0.00  0.00    +0.150 HD
BRANCH  17  21
ATOM     21  CA  ASP A   3      -3.680   1.915 -15.110  0.00  0.00    +0.160 C 
BRANCH  21  23
ATOM     22  C   LEU A   2      -3.974   4.263 -14.670  0.00  0.00    +0.241 C 
ATOM     23  N   ASP A   3      -3.302   3.148 -14.440  0.00  0.00    -0.297 N 
ATOM     24  H   ASP A   3      -2.500   3.153 -13.778  0.00  0.00    +0.150 HD
ATOM     25  O   LEU A   2      -5.077   4.274 -15.222  0.00  0.00    -0.273 OA
BRANCH  22  26
ATOM     26  CA  LEU A   2      -3.278   5.554 -14.247  0.00  0.00    +0.149 C 
BRANCH  26  28
ATOM     27  C   LEU A   1      -1.792   5.806 -16.144  0.00  0.00    +0.238 C 
ATOM     28  N   LEU A   2      -2.862   6.227 -15.476  0.00  0.00    -0.297 N 
ATOM     29  H   LEU A   2      -3.406   7.040 -15.830  0.00  0.00    +0.150 HD
ATOM     30  O   LEU A   1      -1.032   4.920 -15.713  0.00  0.00    -0.274 OA
BRANCH  27  31
ATOM     31  CA  LEU A   1      -1.526   6.470 -17.490  0.00  0.00    +0.145 C 
BRANCH  31  32
ATOM     32  N   LEU A   1      -0.167   6.979 -17.501  0.00  0.00    -0.238 NA
ATOM     33  H   LEU A   1       0.605   6.340 -17.779  0.00  0.00    +0.142 HD
ENDBRANCH  31  32
BRANCH  31  34
ATOM     34  CB  LEU A   1      -1.661   5.438 -18.604  0.00  0.00    +0.026 C 
BRANCH  34  35
ATOM     35  CG  LEU A   1      -2.985   4.964 -19.170  0.00  0.00    +0.002 C 
ATOM     36  CD2 LEU A   1      -3.744   6.123 -19.782  0.00  0.00    +0.000 C 
ATOM     37  CD1 LEU A   1      -2.635   3.948 -20.263  0.00  0.00    +0.000 C 
ENDBRANCH  34  35
ENDBRANCH  31  34
ENDBRANCH  27  31
ENDBRANCH  26  28
BRANCH  26  38
ATOM     38  CB  LEU A   2      -4.175   6.451 -13.391  0.00  0.00    +0.029 C 
BRANCH  38  39
ATOM     39  CG  LEU A   2      -3.572   7.814 -13.023  0.00  0.00    +0.002 C 
ATOM     40  CD2 LEU A   2      -4.531   8.623 -12.106  0.00  0.00    +0.000 C 
ATOM     41  CD1 LEU A   2      -2.169   7.695 -12.384  0.00  0.00    +0.000 C 
ENDBRANCH  38  39
ENDBRANCH  26  38
ENDBRANCH  22  26
ENDBRANCH  21  23
BRANCH  21  42
ATOM     42  CB  ASP A   3      -2.564   1.531 -16.094  0.00  0.00    +0.143 C 
BRANCH  42  43
ATOM     43  CG  ASP A   3      -2.955   0.391 -16.989  0.00  0.00    +0.367 C 
ATOM     44  OD2 ASP A   3      -4.059  -0.180 -16.785  0.00  0.00    -0.246 OA
ATOM     45  OD1 ASP A   3      -2.174   0.078 -17.916  0.00  0.00    -0.246 OA
ENDBRANCH  42  43
ENDBRANCH  21  42
ENDBRANCH  17  21
ENDBRANCH  16  19
BRANCH  16  46
ATOM     46  CB  THR A   4      -7.138  -0.458 -12.559  0.00  0.00    +0.137 C 
ATOM     47  CG2 THR A   4      -7.410   0.901 -11.921  0.00  0.00    +0.034 C 
BRANCH  46  48
ATOM     48  OG1 THR A   4      -7.981  -0.634 -13.703  0.00  0.00    -0.382 OA
ATOM     49  HG1 THR A   4      -7.821  -1.529 -14.095  0.00  0.00    +0.210 HD
ENDBRANCH  46  48
ENDBRANCH  16  46
ENDBRANCH  12  16
ENDBRANCH  11  14
ENDBRANCH   7  11
ENDBRANCH   5   8
ENDBRANCH   1   5
BRANCH   3  50
ATOM     50  CA  ASP A   7       0.253  -4.750 -11.641  0.00  0.00    +0.160 C 
BRANCH  50  51
ATOM     51  C   ASP A   7       1.298  -3.783 -11.088  0.00  0.00    +0.241 C 
ATOM     52  O   ASP A   7       1.273  -3.421  -9.910  0.00  0.00    -0.273 OA
ATOM     53  N   ASP A   8       2.224  -3.383 -11.961  0.00  0.00    -0.297 N 
ATOM     54  H   ASP A   8       2.131  -3.681 -12.953  0.00  0.00    +0.150 HD
BRANCH  53  55
ATOM     55  CA  ASP A   8       3.356  -2.551 -11.593  0.00  0.00    +0.160 C 
BRANCH  55  56
ATOM     56  C   ASP A   8       3.555  -1.397 -12.557  0.00  0.00    +0.241 C 
ATOM     57  N   THR A   9       4.139  -0.331 -12.031  0.00  0.00    -0.295 N 
ATOM     58  H   THR A   9       4.373  -0.363 -11.018  0.00  0.00    +0.150 HD
ATOM     59  O   ASP A   8       3.190  -1.473 -13.729  0.00  0.00    -0.273 OA
BRANCH  57  60
ATOM     60  CA  THR A   9       4.477   0.878 -12.759  0.00  0.00    +0.176 C 
BRANCH  60  61
ATOM     61  C   THR A   9       5.614   0.598 -13.745  0.00  0.00    +0.243 C 
ATOM     62  O   THR A   9       6.654   0.050 -13.360  0.00  0.00    -0.273 OA
ATOM     63  N   VAL A  10       5.377   0.940 -15.015  0.00  0.00    -0.297 N 
ATOM     64  H   VAL A  10       4.446   1.340 -15.249  0.00  0.00    +0.150 HD
BRANCH  63  65
ATOM     65  CA  VAL A  10       6.359   0.783 -16.105  0.00  0.00    +0.149 C 
BRANCH  65  66
ATOM     66  C   VAL A  10       6.508   2.101 -16.889  0.00  0.00    +0.241 C 
ATOM     67  N   ILE A  11       7.751   2.558 -17.051  0.00  0.00    -0.298 N 
ATOM     68  H   ILE A  11       8.541   1.990 -16.683  0.00  0.00    +0.150 HD
ATOM     69  O   VAL A  10       5.513   2.687 -17.334  0.00  0.00    -0.273 OA
BRANCH  67  70
ATOM     70  CA  ILE A  11       8.051   3.816 -17.720  0.00  0.00    +0.137 C 
BRANCH  70  71
ATOM     71  C   ILE A  11       9.094   3.565 -18.811  0.00  0.00    +0.227 C 
ATOM     72  O   ILE A  11       9.989   2.742 -18.636  0.00  0.00    -0.286 OA
ENDBRANCH  70  71
BRANCH  70  73
ATOM     73  CB  ILE A  11       8.604   4.886 -16.711  0.00  0.00    +0.026 C 
ATOM     74  CG2 ILE A  11       8.910   6.243 -17.413  0.00  0.00    +0.002 C 
BRANCH  73  75
ATOM     75  CG1 ILE A  11       7.670   5.068 -15.502  0.00  0.00    +0.002 C 
ATOM     76  CD1 ILE A  11       6.236   5.520 -15.849  0.00  0.00    +0.000 C 
ENDBRANCH  73  75
ENDBRANCH  70  73
ENDBRANCH  67  70
ENDBRANCH  65  66
BRANCH  65  77
ATOM     77  CB  VAL A  10       6.000  -0.390 -17.090  0.00  0.00    +0.027 C 
ATOM     78  CG2 VAL A  10       5.619  -1.665 -16.330  0.00  0.00    +0.002 C 
ATOM     79  CG1 VAL A  10       7.184  -0.692 -18.048  0.00  0.00    +0.002 C 
ENDBRANCH  65  77
ENDBRANCH  63  65
ENDBRANCH  60  61
BRANCH  60  80
ATOM     80  CB  THR A   9       4.865   1.980 -11.745  0.00  0.00    +0.137 C 
ATOM     81  CG2 THR A   9       5.399   3.250 -12.437  0.00  0.00    +0.034 C 
BRANCH  80  82
ATOM     82  OG1 THR A   9       3.712   2.295 -10.951  0.00  0.00    -0.382 OA
ATOM     83  HG1 THR A   9       3.412   1.483 -10.470  0.00  0.00    +0.210 HD
ENDBRANCH  80  82
ENDBRANCH  60  80
ENDBRANCH  57  60
ENDBRANCH  55  56
BRANCH  55  84
ATOM     84  CB  ASP A   8       4.619  -3.408 -11.527  0.00  0.00    +0.143 C 
BRANCH  84  85
ATOM     85  CG  ASP A   8       4.522  -4.481 -10.461  0.00  0.00    +0.367 C 
ATOM     86  OD2 ASP A   8       4.478  -4.131  -9.265  0.00  0.00    -0.246 OA
ATOM     87  OD1 ASP A   8       4.479  -5.669 -10.820  0.00  0.00    -0.246 OA
ENDBRANCH  84  85
ENDBRANCH  55  84
ENDBRANCH  53  55
ENDBRANCH  50  51
BRANCH  50  88
ATOM     88  CB  ASP A   7       0.821  -6.171 -11.606  0.00  0.00    +0.143 C 
BRANCH  88  89
ATOM     89  CG  ASP A   7      -0.210  -7.253 -11.940  0.00  0.00    +0.367 C 
ATOM     90  OD2 ASP A   7      -1.427  -7.080 -11.703  0.00  0.00    -0.246 OA
ATOM     91  OD1 ASP A   7       0.220  -8.315 -12.433  0.00  0.00    -0.246 OA
ENDBRANCH  88  89
ENDBRANCH  50  88
ENDBRANCH   3  50
TORSDOF 39
REMARK  Name = ../refined-set-2016/3t3c/3t3c_pocket.pdb
REMARK  204 active torsions:
REMARK  status: ('A' for Active; 'I' for Inactive)
REMARK    1  A    between atoms: _1  and  _3
REMARK    2  A    between atoms: _3  and  _4
REMARK    3  A    between atoms: _3  and  _6
REMARK    4  A    between atoms: _6  and  _7
REMARK    5  A    between atoms: _7  and  _8
REMARK    6  A    between atoms: _8  and  _9
REMARK    7  A    between atoms: _18  and  _20
REMARK    8  A    between atoms: _20  and  _21
REMARK    9  A    between atoms: _20  and  _23
REMARK   10  A    between atoms: _23  and  _24
REMARK   11  A    between atoms: _27  and  _29
REMARK   12  A    between atoms: _29  and  _30
REMARK   13  A    between atoms: _29  and  _32
REMARK   14  A    between atoms: _32  and  _33
REMARK   15  A    between atoms: _36  and  _38
REMARK   16  A    between atoms: _38  and  _39
REMARK   17  A    between atoms: _38  and  _41
REMARK   18  A    between atoms: _41  and  _42
REMARK   19  A    between atoms: _45  and  _47
REMARK   20  A    between atoms: _47  and  _48
REMARK   21  A    between atoms: _47  and  _50
REMARK   22  A    between atoms: _50  and  _51
REMARK   23  A    between atoms: _54  and  _56
REMARK   24  A    between atoms: _56  and  _57
REMARK   25  A    between atoms: _59  and  _61
REMARK   26  A    between atoms: _61  and  _62
REMARK   27  A    between atoms: _65  and  _67
REMARK   28  A    between atoms: _67  and  _68
REMARK   29  A    between atoms: _67  and  _70
REMARK   30  A    between atoms: _70  and  _71
REMARK   31  A    between atoms: _74  and  _76
REMARK   32  A    between atoms: _76  and  _77
REMARK   33  A    between atoms: _76  and  _79
REMARK   34  A    between atoms: _79  and  _80
REMARK   35  A    between atoms: _83  and  _85
REMARK   36  A    between atoms: _85  and  _86
REMARK   37  A    between atoms: _85  and  _88
REMARK   38  A    between atoms: _88  and  _89
REMARK   39  A    between atoms: _92  and  _94
REMARK   40  A    between atoms: _94  and  _95
REMARK   41  A    between atoms: _94  and  _97
REMARK   42  A    between atoms: _100  and  _102
REMARK   43  A    between atoms: _102  and  _103
REMARK   44  A    between atoms: _102  and  _105
REMARK   45  A    between atoms: _105  and  _106
REMARK   46  A    between atoms: _109  and  _111
REMARK   47  A    between atoms: _111  and  _112
REMARK   48  A    between atoms: _115  and  _117
REMARK   49  A    between atoms: _117  and  _118
REMARK   50  A    between atoms: _120  and  _122
REMARK   51  A    between atoms: _122  and  _123
REMARK   52  A    between atoms: _122  and  _125
REMARK   53  A    between atoms: _125  and  _126
REMARK   54  A    between atoms: _129  and  _131
REMARK   55  A    between atoms: _131  and  _132
REMARK   56  A    between atoms: _134  and  _136
REMARK   57  A    between atoms: _136  and  _137
REMARK   58  A    between atoms: _139  and  _141
REMARK   59  A    between atoms: _141  and  _142
REMARK   60  A    between atoms: _141  and  _144
REMARK   61  A    between atoms: _147  and  _149
REMARK   62  A    between atoms: _149  and  _150
REMARK   63  A    between atoms: _149  and  _152
REMARK   64  A    between atoms: _152  and  _153
REMARK   65  A    between atoms: _156  and  _158
REMARK   66  A    between atoms: _158  and  _159
REMARK   67  A    between atoms: _158  and  _161
REMARK   68  A    between atoms: _161  and  _162
REMARK   69  A    between atoms: _166  and  _167
REMARK   70  A    between atoms: _172  and  _174
REMARK   71  A    between atoms: _174  and  _175
REMARK   72  A    between atoms: _178  and  _180
REMARK   73  A    between atoms: _180  and  _181
REMARK   74  A    between atoms: _180  and  _183
REMARK   75  A    between atoms: _183  and  _184
REMARK   76  A    between atoms: _189  and  _191
REMARK   77  A    between atoms: _191  and  _192
REMARK   78  A    between atoms: _191  and  _194
REMARK   79  A    between atoms: _197  and  _199
REMARK   80  A    between atoms: _199  and  _200
REMARK   81  A    between atoms: _199  and  _202
REMARK   82  A    between atoms: _202  and  _203
REMARK   83  A    between atoms: _206  and  _208
REMARK   84  A    between atoms: _208  and  _209
REMARK   85  A    between atoms: _211  and  _213
REMARK   86  A    between atoms: _213  and  _214
REMARK   87  A    between atoms: _213  and  _216
REMARK   88  A    between atoms: _216  and  _217
REMARK   89  A    between atoms: _217  and  _218
REMARK   90  A    between atoms: _218  and  _219
REMARK   91  A    between atoms: _228  and  _230
REMARK   92  A    between atoms: _230  and  _231
REMARK   93  A    between atoms: _230  and  _233
REMARK   94  A    between atoms: _233  and  _234
REMARK   95  A    between atoms: _239  and  _241
REMARK   96  A    between atoms: _241  and  _242
REMARK   97  A    between atoms: _241  and  _244
REMARK   98  A    between atoms: _244  and  _245
REMARK   99  A    between atoms: _245  and  _246
REMARK  100  A    between atoms: _246  and  _247
REMARK  101  A    between atoms: _256  and  _258
REMARK  102  A    between atoms: _258  and  _259
REMARK  103  A    between atoms: _258  and  _261
REMARK  104  A    between atoms: _261  and  _262
REMARK  105  A    between atoms: _265  and  _267
REMARK  106  A    between atoms: _267  and  _268
REMARK  107  A    between atoms: _267  and  _270
REMARK  108  A    between atoms: _270  and  _271
REMARK  109  A    between atoms: _274  and  _276
REMARK  110  A    between atoms: _276  and  _277
REMARK  111  A    between atoms: _276  and  _279
REMARK  112  A    between atoms: _279  and  _280
REMARK  113  A    between atoms: _283  and  _285
REMARK  114  A    between atoms: _285  and  _286
REMARK  115  A    between atoms: _285  and  _288
REMARK  116  A    between atoms: _288  and  _289
REMARK  117  A    between atoms: _292  and  _294
REMARK  118  A    between atoms: _294  and  _295
REMARK  119  A    between atoms: _297  and  _299
REMARK  120  A    between atoms: _299  and  _300
REMARK  121  A    between atoms: _303  and  _305
REMARK  122  A    between atoms: _305  and  _306
REMARK  123  A    between atoms: _305  and  _308
REMARK  124  A    between atoms: _308  and  _309
REMARK  125  A    between atoms: _312  and  _314
REMARK  126  A    between atoms: _314  and  _315
REMARK  127  A    between atoms: _314  and  _317
REMARK  128  A    between atoms: _317  and  _318
REMARK  129  A    between atoms: _321  and  _323
REMARK  130  A    between atoms: _323  and  _324
REMARK  131  A    between atoms: _323  and  _326
REMARK  132  A    between atoms: _326  and  _327
REMARK  133  A    between atoms: _330  and  _332
REMARK  134  A    between atoms: _332  and  _333
REMARK  135  A    between atoms: _332  and  _335
REMARK  136  A    between atoms: _338  and  _340
REMARK  137  A    between atoms: _340  and  _341
REMARK  138  A    between atoms: _340  and  _343
REMARK  139  A    between atoms: _343  and  _344
REMARK  140  A    between atoms: _347  and  _349
REMARK  141  A    between atoms: _349  and  _350
REMARK  142  A    between atoms: _349  and  _352
REMARK  143  A    between atoms: _352  and  _353
REMARK  144  A    between atoms: _353  and  _354
REMARK  145  A    between atoms: _356  and  _358
REMARK  146  A    between atoms: _358  and  _359
REMARK  147  A    between atoms: _358  and  _361
REMARK  148  A    between atoms: _361  and  _362
REMARK  149  A    between atoms: _365  and  _367
REMARK  150  A    between atoms: _367  and  _368
REMARK  151  A    between atoms: _371  and  _373
REMARK  152  A    between atoms: _373  and  _374
REMARK  153  A    between atoms: _376  and  _378
REMARK  154  A    between atoms: _378  and  _379
REMARK  155  A    between atoms: _378  and  _381
REMARK  156  A    between atoms: _381  and  _382
REMARK  157  A    between atoms: _385  and  _387
REMARK  158  A    between atoms: _387  and  _388
REMARK  159  A    between atoms: _390  and  _392
REMARK  160  A    between atoms: _392  and  _393
REMARK  161  A    between atoms: _395  and  _397
REMARK  162  A    between atoms: _397  and  _398
REMARK  163  A    between atoms: _397  and  _400
REMARK  164  A    between atoms: _400  and  _401
REMARK  165  A    between atoms: _407  and  _409
REMARK  166  A    between atoms: _409  and  _410
REMARK  167  A    between atoms: _409  and  _412
REMARK  168  A    between atoms: _415  and  _417
REMARK  169  A    between atoms: _417  and  _418
REMARK  170  A    between atoms: _417  and  _420
REMARK  171  A    between atoms: _423  and  _425
REMARK  172  A    between atoms: _425  and  _426
REMARK  173  A    between atoms: _425  and  _428
REMARK  174  A    between atoms: _428  and  _429
REMARK  175  A    between atoms: _432  and  _434
REMARK  176  A    between atoms: _434  and  _435
REMARK  177  A    between atoms: _434  and  _437
REMARK  178  A    between atoms: _437  and  _438
REMARK  179  A    between atoms: _442  and  _443
REMARK  180  A    between atoms: _448  and  _450
REMARK  181  A    between atoms: _450  and  _451
REMARK  182  A    between atoms: _454  and  _456
REMARK  183  A    between atoms: _456  and  _457
REMARK  184  A    between atoms: _456  and  _459
REMARK  185  A    between atoms: _459  and  _460
REMARK  186  A    between atoms: _465  and  _467
REMARK  187  A    between atoms: _467  and  _468
REMARK  188  A    between atoms: _467  and  _470
REMARK  189  A    between atoms: _473  and  _475
REMARK  190  A    between atoms: _475  and  _476
REMARK  191  A    between atoms: _475  and  _478
REMARK  192  A    between atoms: _478  and  _479
REMARK  193  A    between atoms: _482  and  _484
REMARK  194  A    between atoms: _484  and  _485
REMARK  195  A    between atoms: _487  and  _489
REMARK  196  A    between atoms: _489  and  _490
REMARK  197  A    between atoms: _489  and  _492
REMARK  198  A    between atoms: _492  and  _493
REMARK  199  A    between atoms: _493  and  _494
REMARK  200  A    between atoms: _494  and  _495
REMARK  201  A    between atoms: _504  and  _506
REMARK  202  A    between atoms: _506  and  _507
REMARK  203  A    between atoms: _506  and  _509
REMARK  204  A    between atoms: _509  and  _510
REMARK                            x       y       z     vdW  Elec       q    Type
REMARK                         _______ _______ _______ _____ _____    ______ ____
ROOT
ATOM      1  CA  ILE A   5      -1.274  -8.123 -25.337  0.00  0.00    +0.149 C 
ENDROOT
BRANCH   1   4
ATOM      2  C   GLY A   4       0.193  -8.558 -23.455  0.00  0.00    +0.243 C 
ATOM      3  O   GLY A   4       0.544  -9.648 -23.928  0.00  0.00    -0.273 OA
ATOM      4  N   ILE A   5      -0.724  -7.781 -24.030  0.00  0.00    -0.297 N 
ATOM      5  H   ILE A   5      -1.051  -6.923 -23.542  0.00  0.00    +0.150 HD
BRANCH   2   6
ATOM      6  CA  GLY A   4       0.780  -8.030 -22.164  0.00  0.00    +0.176 C 
BRANCH   6   9
ATOM      7  C   ALA A   3       2.321  -8.909 -20.511  0.00  0.00    +0.241 C 
ATOM      8  O   ALA A   3       1.623  -8.517 -19.591  0.00  0.00    -0.273 OA
ATOM      9  N   GLY A   4       2.007  -8.721 -21.789  0.00  0.00    -0.295 N 
ATOM     10  H   GLY A   4       2.646  -9.072 -22.531  0.00  0.00    +0.150 HD
BRANCH   7  11
ATOM     11  CA  ALA A   3       3.591  -9.671 -20.229  0.00  0.00    +0.149 C 
ATOM     12  CB  ALA A   3       3.245 -11.113 -19.860  0.00  0.00    +0.031 C 
BRANCH  11  14
ATOM     13  C   ILE A   2       5.599  -8.655 -19.303  0.00  0.00    +0.241 C 
ATOM     14  N   ALA A   3       4.334  -9.033 -19.151  0.00  0.00    -0.297 N 
ATOM     15  H   ALA A   3       3.862  -8.869 -18.239  0.00  0.00    +0.150 HD
ATOM     16  O   ILE A   2       6.207  -8.754 -20.367  0.00  0.00    -0.273 OA
BRANCH  13  17
ATOM     17  CA  ILE A   2       6.300  -8.104 -18.070  0.00  0.00    +0.148 C 
BRANCH  17  20
ATOM     18  C   MET A   1       8.477  -8.879 -17.268  0.00  0.00    +0.238 C 
ATOM     19  O   MET A   1       8.012  -9.259 -16.202  0.00  0.00    -0.274 OA
ATOM     20  N   ILE A   2       7.755  -8.258 -18.195  0.00  0.00    -0.297 N 
ATOM     21  H   ILE A   2       8.234  -7.870 -19.033  0.00  0.00    +0.150 HD
BRANCH  18  22
ATOM     22  CA  MET A   1       9.953  -9.106 -17.584  0.00  0.00    +0.146 C 
BRANCH  22  23
ATOM     23  N   MET A   1      10.724  -9.070 -16.345  0.00  0.00    -0.238 NA
ATOM     24  H   MET A   1      10.361  -9.584 -15.517  0.00  0.00    +0.142 HD
ENDBRANCH  22  23
BRANCH  22  25
ATOM     25  CB  MET A   1      10.110 -10.454 -18.260  0.00  0.00    +0.038 C 
BRANCH  25  26
ATOM     26  CG  MET A   1      11.534 -10.745 -18.758  0.00  0.00    +0.060 C 
BRANCH  26  27
ATOM     27  SD  MET A   1      11.448 -11.860 -20.151  0.00  0.00    -0.139 S 
ATOM     28  CE  MET A   1       9.727 -11.662 -20.606  0.00  0.00    +0.069 C 
ENDBRANCH  26  27
ENDBRANCH  25  26
ENDBRANCH  22  25
ENDBRANCH  18  22
ENDBRANCH  17  20
BRANCH  17  29
ATOM     29  CB  ILE A   2       5.880  -6.642 -17.796  0.00  0.00    +0.027 C 
ATOM     30  CG2 ILE A   2       6.331  -6.242 -16.387  0.00  0.00    +0.002 C 
BRANCH  29  31
ATOM     31  CG1 ILE A   2       6.448  -5.696 -18.865  0.00  0.00    +0.002 C 
ATOM     32  CD1 ILE A   2       5.923  -4.281 -18.772  0.00  0.00    +0.000 C 
ENDBRANCH  29  31
ENDBRANCH  17  29
ENDBRANCH  13  17
ENDBRANCH  11  14
ENDBRANCH   7  11
ENDBRANCH   6   9
ENDBRANCH   2   6
ENDBRANCH   1   4
BRANCH   1  33
ATOM     33  C   ILE A   5      -0.142  -7.977 -26.371  0.00  0.00    +0.241 C 
ATOM     34  O   ILE A   5       0.539  -6.954 -26.420  0.00  0.00    -0.273 OA
ATOM     35  N   GLY A   6       0.074  -9.028 -27.163  0.00  0.00    -0.295 N 
ATOM     36  H   GLY A   6      -0.504  -9.884 -27.045  0.00  0.00    +0.150 HD
BRANCH  35  37
ATOM     37  CA  GLY A   6       1.107  -8.997 -28.191  0.00  0.00    +0.176 C 
BRANCH  37  38
ATOM     38  C   GLY A   6       2.430  -9.597 -27.759  0.00  0.00    +0.243 C 
ATOM     39  N   GLY A   7       2.649  -9.751 -26.460  0.00  0.00    -0.295 N 
ATOM     40  H   GLY A   7       1.937  -9.435 -25.771  0.00  0.00    +0.150 HD
ATOM     41  O   GLY A   6       3.253  -9.924 -28.596  0.00  0.00    -0.273 OA
BRANCH  39  42
ATOM     42  CA  GLY A   7       3.888 -10.364 -25.999  0.00  0.00    +0.176 C 
BRANCH  42  43
ATOM     43  C   GLY A   7       4.506  -9.742 -24.760  0.00  0.00    +0.243 C 
ATOM     44  O   GLY A   7       3.805  -9.207 -23.904  0.00  0.00    -0.273 OA
ATOM     45  N   PHE A   8       5.833  -9.821 -24.684  0.00  0.00    -0.297 N 
ATOM     46  H   PHE A   8       6.356 -10.128 -25.529  0.00  0.00    +0.150 HD
BRANCH  45  47
ATOM     47  CA  PHE A   8       6.597  -9.499 -23.474  0.00  0.00    +0.153 C 
BRANCH  47  48
ATOM     48  C   PHE A   8       7.512  -8.297 -23.686  0.00  0.00    +0.241 C 
ATOM     49  N   VAL A   9       7.849  -7.628 -22.589  0.00  0.00    -0.298 N 
ATOM     50  H   VAL A   9       7.408  -7.897 -21.687  0.00  0.00    +0.150 HD
ATOM     51  O   PHE A   8       7.901  -7.984 -24.816  0.00  0.00    -0.273 OA
BRANCH  49  52
ATOM     52  CA  VAL A   9       8.811  -6.532 -22.596  0.00  0.00    +0.137 C 
BRANCH  52  53
ATOM     53  CB  VAL A   9       8.131  -5.152 -22.371  0.00  0.00    +0.026 C 
ATOM     54  CG2 VAL A   9       9.179  -4.036 -22.387  0.00  0.00    +0.002 C 
ATOM     55  CG1 VAL A   9       7.061  -4.887 -23.441  0.00  0.00    +0.002 C 
ENDBRANCH  52  53
BRANCH  52  56
ATOM     56  C   VAL A   9       9.843  -6.804 -21.496  0.00  0.00    +0.227 C 
ATOM     57  O   VAL A   9       9.482  -7.094 -20.362  0.00  0.00    -0.286 OA
ENDBRANCH  52  56
ENDBRANCH  49  52
ENDBRANCH  47  48
BRANCH  47  58
ATOM     58  CB  PHE A   8       7.465 -10.693 -23.062  0.00  0.00    +0.055 C 
BRANCH  58  59
ATOM     59  CG  PHE A   8       6.711 -11.987 -22.914  0.00  0.00    -0.020 A 
ATOM     60  CD2 PHE A   8       6.224 -12.384 -21.674  0.00  0.00    -0.004 A 
ATOM     61  CE2 PHE A   8       5.526 -13.586 -21.518  0.00  0.00    -0.000 A 
ATOM     62  CZ  PHE A   8       5.323 -14.420 -22.607  0.00  0.00    -0.000 A 
ATOM     63  CE1 PHE A   8       5.809 -14.048 -23.870  0.00  0.00    -0.000 A 
ATOM     64  CD1 PHE A   8       6.512 -12.832 -24.015  0.00  0.00    -0.004 A 
ENDBRANCH  58  59
ENDBRANCH  47  58
ENDBRANCH  45  47
ENDBRANCH  42  43
ENDBRANCH  39  42
ENDBRANCH  37  38
ENDBRANCH  35  37
ENDBRANCH   1  33
BRANCH   1  65
ATOM     65  CB  ILE A   5      -2.513  -7.245 -25.676  0.00  0.00    +0.027 C 
ATOM     66  CG2 ILE A   5      -2.914  -7.403 -27.146  0.00  0.00    +0.002 C 
BRANCH  65  67
ATOM     67  CG1 ILE A   5      -3.685  -7.610 -24.745  0.00  0.00    +0.002 C 
ATOM     68  CD1 ILE A   5      -4.827  -6.604 -24.717  0.00  0.00    +0.000 C 
ENDBRANCH  65  67
ENDBRANCH   1  65
TORSDOF 28
REMARK  Name = ../refined-set-2016/3t3c/3t3c_pocket.pdb
REMARK  204 active torsions:
REMARK  status: ('A' for Active; 'I' for Inactive)
REMARK    1  A    between atoms: _1  and  _3
REMARK    2  A    between atoms: _3  and  _4
REMARK    3  A    between atoms: _3  and  _6
REMARK    4  A    between atoms: _6  and  _7
REMARK    5  A    between atoms: _7  and  _8
REMARK    6  A    between atoms: _8  and  _9
REMARK    7  A    between atoms: _18  and  _20
REMARK    8  A    between atoms: _20  and  _21
REMARK    9  A    between atoms: _20  and  _23
REMARK   10  A    between atoms: _23  and  _24
REMARK   11  A    between atoms: _27  and  _29
REMARK   12  A    between atoms: _29  and  _30
REMARK   13  A    between atoms: _29  and  _32
REMARK   14  A    between atoms: _32  and  _33
REMARK   15  A    between atoms: _36  and  _38
REMARK   16  A    between atoms: _38  and  _39
REMARK   17  A    between atoms: _38  and  _41
REMARK   18  A    between atoms: _41  and  _42
REMARK   19  A    between atoms: _45  and  _47
REMARK   20  A    between atoms: _47  and  _48
REMARK   21  A    between atoms: _47  and  _50
REMARK   22  A    between atoms: _50  and  _51
REMARK   23  A    between atoms: _54  and  _56
REMARK   24  A    between atoms: _56  and  _57
REMARK   25  A    between atoms: _59  and  _61
REMARK   26  A    between atoms: _61  and  _62
REMARK   27  A    between atoms: _65  and  _67
REMARK   28  A    between atoms: _67  and  _68
REMARK   29  A    between atoms: _67  and  _70
REMARK   30  A    between atoms: _70  and  _71
REMARK   31  A    between atoms: _74  and  _76
REMARK   32  A    between atoms: _76  and  _77
REMARK   33  A    between atoms: _76  and  _79
REMARK   34  A    between atoms: _79  and  _80
REMARK   35  A    between atoms: _83  and  _85
REMARK   36  A    between atoms: _85  and  _86
REMARK   37  A    between atoms: _85  and  _88
REMARK   38  A    between atoms: _88  and  _89
REMARK   39  A    between atoms: _92  and  _94
REMARK   40  A    between atoms: _94  and  _95
REMARK   41  A    between atoms: _94  and  _97
REMARK   42  A    between atoms: _100  and  _102
REMARK   43  A    between atoms: _102  and  _103
REMARK   44  A    between atoms: _102  and  _105
REMARK   45  A    between atoms: _105  and  _106
REMARK   46  A    between atoms: _109  and  _111
REMARK   47  A    between atoms: _111  and  _112
REMARK   48  A    between atoms: _115  and  _117
REMARK   49  A    between atoms: _117  and  _118
REMARK   50  A    between atoms: _120  and  _122
REMARK   51  A    between atoms: _122  and  _123
REMARK   52  A    between atoms: _122  and  _125
REMARK   53  A    between atoms: _125  and  _126
REMARK   54  A    between atoms: _129  and  _131
REMARK   55  A    between atoms: _131  and  _132
REMARK   56  A    between atoms: _134  and  _136
REMARK   57  A    between atoms: _136  and  _137
REMARK   58  A    between atoms: _139  and  _141
REMARK   59  A    between atoms: _141  and  _142
REMARK   60  A    between atoms: _141  and  _144
REMARK   61  A    between atoms: _147  and  _149
REMARK   62  A    between atoms: _149  and  _150
REMARK   63  A    between atoms: _149  and  _152
REMARK   64  A    between atoms: _152  and  _153
REMARK   65  A    between atoms: _156  and  _158
REMARK   66  A    between atoms: _158  and  _159
REMARK   67  A    between atoms: _158  and  _161
REMARK   68  A    between atoms: _161  and  _162
REMARK   69  A    between atoms: _166  and  _167
REMARK   70  A    between atoms: _172  and  _174
REMARK   71  A    between atoms: _174  and  _175
REMARK   72  A    between atoms: _178  and  _180
REMARK   73  A    between atoms: _180  and  _181
REMARK   74  A    between atoms: _180  and  _183
REMARK   75  A    between atoms: _183  and  _184
REMARK   76  A    between atoms: _189  and  _191
REMARK   77  A    between atoms: _191  and  _192
REMARK   78  A    between atoms: _191  and  _194
REMARK   79  A    between atoms: _197  and  _199
REMARK   80  A    between atoms: _199  and  _200
REMARK   81  A    between atoms: _199  and  _202
REMARK   82  A    between atoms: _202  and  _203
REMARK   83  A    between atoms: _206  and  _208
REMARK   84  A    between atoms: _208  and  _209
REMARK   85  A    between atoms: _211  and  _213
REMARK   86  A    between atoms: _213  and  _214
REMARK   87  A    between atoms: _213  and  _216
REMARK   88  A    between atoms: _216  and  _217
REMARK   89  A    between atoms: _217  and  _218
REMARK   90  A    between atoms: _218  and  _219
REMARK   91  A    between atoms: _228  and  _230
REMARK   92  A    between atoms: _230  and  _231
REMARK   93  A    between atoms: _230  and  _233
REMARK   94  A    between atoms: _233  and  _234
REMARK   95  A    between atoms: _239  and  _241
REMARK   96  A    between atoms: _241  and  _242
REMARK   97  A    between atoms: _241  and  _244
REMARK   98  A    between atoms: _244  and  _245
REMARK   99  A    between atoms: _245  and  _246
REMARK  100  A    between atoms: _246  and  _247
REMARK  101  A    between atoms: _256  and  _258
REMARK  102  A    between atoms: _258  and  _259
REMARK  103  A    between atoms: _258  and  _261
REMARK  104  A    between atoms: _261  and  _262
REMARK  105  A    between atoms: _265  and  _267
REMARK  106  A    between atoms: _267  and  _268
REMARK  107  A    between atoms: _267  and  _270
REMARK  108  A    between atoms: _270  and  _271
REMARK  109  A    between atoms: _274  and  _276
REMARK  110  A    between atoms: _276  and  _277
REMARK  111  A    between atoms: _276  and  _279
REMARK  112  A    between atoms: _279  and  _280
REMARK  113  A    between atoms: _283  and  _285
REMARK  114  A    between atoms: _285  and  _286
REMARK  115  A    between atoms: _285  and  _288
REMARK  116  A    between atoms: _288  and  _289
REMARK  117  A    between atoms: _292  and  _294
REMARK  118  A    between atoms: _294  and  _295
REMARK  119  A    between atoms: _297  and  _299
REMARK  120  A    between atoms: _299  and  _300
REMARK  121  A    between atoms: _303  and  _305
REMARK  122  A    between atoms: _305  and  _306
REMARK  123  A    between atoms: _305  and  _308
REMARK  124  A    between atoms: _308  and  _309
REMARK  125  A    between atoms: _312  and  _314
REMARK  126  A    between atoms: _314  and  _315
REMARK  127  A    between atoms: _314  and  _317
REMARK  128  A    between atoms: _317  and  _318
REMARK  129  A    between atoms: _321  and  _323
REMARK  130  A    between atoms: _323  and  _324
REMARK  131  A    between atoms: _323  and  _326
REMARK  132  A    between atoms: _326  and  _327
REMARK  133  A    between atoms: _330  and  _332
REMARK  134  A    between atoms: _332  and  _333
REMARK  135  A    between atoms: _332  and  _335
REMARK  136  A    between atoms: _338  and  _340
REMARK  137  A    between atoms: _340  and  _341
REMARK  138  A    between atoms: _340  and  _343
REMARK  139  A    between atoms: _343  and  _344
REMARK  140  A    between atoms: _347  and  _349
REMARK  141  A    between atoms: _349  and  _350
REMARK  142  A    between atoms: _349  and  _352
REMARK  143  A    between atoms: _352  and  _353
REMARK  144  A    between atoms: _353  and  _354
REMARK  145  A    between atoms: _356  and  _358
REMARK  146  A    between atoms: _358  and  _359
REMARK  147  A    between atoms: _358  and  _361
REMARK  148  A    between atoms: _361  and  _362
REMARK  149  A    between atoms: _365  and  _367
REMARK  150  A    between atoms: _367  and  _368
REMARK  151  A    between atoms: _371  and  _373
REMARK  152  A    between atoms: _373  and  _374
REMARK  153  A    between atoms: _376  and  _378
REMARK  154  A    between atoms: _378  and  _379
REMARK  155  A    between atoms: _378  and  _381
REMARK  156  A    between atoms: _381  and  _382
REMARK  157  A    between atoms: _385  and  _387
REMARK  158  A    between atoms: _387  and  _388
REMARK  159  A    between atoms: _390  and  _392
REMARK  160  A    between atoms: _392  and  _393
REMARK  161  A    between atoms: _395  and  _397
REMARK  162  A    between atoms: _397  and  _398
REMARK  163  A    between atoms: _397  and  _400
REMARK  164  A    between atoms: _400  and  _401
REMARK  165  A    between atoms: _407  and  _409
REMARK  166  A    between atoms: _409  and  _410
REMARK  167  A    between atoms: _409  and  _412
REMARK  168  A    between atoms: _415  and  _417
REMARK  169  A    between atoms: _417  and  _418
REMARK  170  A    between atoms: _417  and  _420
REMARK  171  A    between atoms: _423  and  _425
REMARK  172  A    between atoms: _425  and  _426
REMARK  173  A    between atoms: _425  and  _428
REMARK  174  A    between atoms: _428  and  _429
REMARK  175  A    between atoms: _432  and  _434
REMARK  176  A    between atoms: _434  and  _435
REMARK  177  A    between atoms: _434  and  _437
REMARK  178  A    between atoms: _437  and  _438
REMARK  179  A    between atoms: _442  and  _443
REMARK  180  A    between atoms: _448  and  _450
REMARK  181  A    between atoms: _450  and  _451
REMARK  182  A    between atoms: _454  and  _456
REMARK  183  A    between atoms: _456  and  _457
REMARK  184  A    between atoms: _456  and  _459
REMARK  185  A    between atoms: _459  and  _460
REMARK  186  A    between atoms: _465  and  _467
REMARK  187  A    between atoms: _467  and  _468
REMARK  188  A    between atoms: _467  and  _470
REMARK  189  A    between atoms: _473  and  _475
REMARK  190  A    between atoms: _475  and  _476
REMARK  191  A    between atoms: _475  and  _478
REMARK  192  A    between atoms: _478  and  _479
REMARK  193  A    between atoms: _482  and  _484
REMARK  194  A    between atoms: _484  and  _485
REMARK  195  A    between atoms: _487  and  _489
REMARK  196  A    between atoms: _489  and  _490
REMARK  197  A    between atoms: _489  and  _492
REMARK  198  A    between atoms: _492  and  _493
REMARK  199  A    between atoms: _493  and  _494
REMARK  200  A    between atoms: _494  and  _495
REMARK  201  A    between atoms: _504  and  _506
REMARK  202  A    between atoms: _506  and  _507
REMARK  203  A    between atoms: _506  and  _509
REMARK  204  A    between atoms: _509  and  _510
REMARK                            x       y       z     vdW  Elec       q    Type
REMARK                         _______ _______ _______ _____ _____    ______ ____
ROOT
ATOM      1  CA  VAL A   1      12.470  -4.284 -18.053  0.00  0.00    +0.133 C 
ENDROOT
BRANCH   1   2
ATOM      2  CB  VAL A   1      11.086  -3.909 -17.440  0.00  0.00    +0.023 C 
ATOM      3  CG2 VAL A   1      10.540  -5.043 -16.551  0.00  0.00    +0.002 C 
ATOM      4  CG1 VAL A   1      10.085  -3.562 -18.546  0.00  0.00    +0.002 C 
ENDBRANCH   1   2
BRANCH   1   5
ATOM      5  N   VAL A   1      12.400  -5.521 -18.833  0.00  0.00    -0.239 NA
ATOM      6  H   VAL A   1      12.403  -6.434 -18.335  0.00  0.00    +0.142 HD
ENDBRANCH   1   5
BRANCH   1   7
ATOM      7  C   VAL A   1      13.539  -4.340 -16.957  0.00  0.00    +0.224 C 
ATOM      8  O   VAL A   1      13.942  -5.421 -16.517  0.00  0.00    -0.287 OA
ENDBRANCH   1   7
TORSDOF 3
REMARK  Name = ../refined-set-2016/3t3c/3t3c_pocket.pdb
REMARK  204 active torsions:
REMARK  status: ('A' for Active; 'I' for Inactive)
REMARK    1  A    between atoms: _1  and  _3
REMARK    2  A    between atoms: _3  and  _4
REMARK    3  A    between atoms: _3  and  _6
REMARK    4  A    between atoms: _6  and  _7
REMARK    5  A    between atoms: _7  and  _8
REMARK    6  A    between atoms: _8  and  _9
REMARK    7  A    between atoms: _18  and  _20
REMARK    8  A    between atoms: _20  and  _21
REMARK    9  A    between atoms: _20  and  _23
REMARK   10  A    between atoms: _23  and  _24
REMARK   11  A    between atoms: _27  and  _29
REMARK   12  A    between atoms: _29  and  _30
REMARK   13  A    between atoms: _29  and  _32
REMARK   14  A    between atoms: _32  and  _33
REMARK   15  A    between atoms: _36  and  _38
REMARK   16  A    between atoms: _38  and  _39
REMARK   17  A    between atoms: _38  and  _41
REMARK   18  A    between atoms: _41  and  _42
REMARK   19  A    between atoms: _45  and  _47
REMARK   20  A    between atoms: _47  and  _48
REMARK   21  A    between atoms: _47  and  _50
REMARK   22  A    between atoms: _50  and  _51
REMARK   23  A    between atoms: _54  and  _56
REMARK   24  A    between atoms: _56  and  _57
REMARK   25  A    between atoms: _59  and  _61
REMARK   26  A    between atoms: _61  and  _62
REMARK   27  A    between atoms: _65  and  _67
REMARK   28  A    between atoms: _67  and  _68
REMARK   29  A    between atoms: _67  and  _70
REMARK   30  A    between atoms: _70  and  _71
REMARK   31  A    between atoms: _74  and  _76
REMARK   32  A    between atoms: _76  and  _77
REMARK   33  A    between atoms: _76  and  _79
REMARK   34  A    between atoms: _79  and  _80
REMARK   35  A    between atoms: _83  and  _85
REMARK   36  A    between atoms: _85  and  _86
REMARK   37  A    between atoms: _85  and  _88
REMARK   38  A    between atoms: _88  and  _89
REMARK   39  A    between atoms: _92  and  _94
REMARK   40  A    between atoms: _94  and  _95
REMARK   41  A    between atoms: _94  and  _97
REMARK   42  A    between atoms: _100  and  _102
REMARK   43  A    between atoms: _102  and  _103
REMARK   44  A    between atoms: _102  and  _105
REMARK   45  A    between atoms: _105  and  _106
REMARK   46  A    between atoms: _109  and  _111
REMARK   47  A    between atoms: _111  and  _112
REMARK   48  A    between atoms: _115  and  _117
REMARK   49  A    between atoms: _117  and  _118
REMARK   50  A    between atoms: _120  and  _122
REMARK   51  A    between atoms: _122  and  _123
REMARK   52  A    between atoms: _122  and  _125
REMARK   53  A    between atoms: _125  and  _126
REMARK   54  A    between atoms: _129  and  _131
REMARK   55  A    between atoms: _131  and  _132
REMARK   56  A    between atoms: _134  and  _136
REMARK   57  A    between atoms: _136  and  _137
REMARK   58  A    between atoms: _139  and  _141
REMARK   59  A    between atoms: _141  and  _142
REMARK   60  A    between atoms: _141  and  _144
REMARK   61  A    between atoms: _147  and  _149
REMARK   62  A    between atoms: _149  and  _150
REMARK   63  A    between atoms: _149  and  _152
REMARK   64  A    between atoms: _152  and  _153
REMARK   65  A    between atoms: _156  and  _158
REMARK   66  A    between atoms: _158  and  _159
REMARK   67  A    between atoms: _158  and  _161
REMARK   68  A    between atoms: _161  and  _162
REMARK   69  A    between atoms: _166  and  _167
REMARK   70  A    between atoms: _172  and  _174
REMARK   71  A    between atoms: _174  and  _175
REMARK   72  A    between atoms: _178  and  _180
REMARK   73  A    between atoms: _180  and  _181
REMARK   74  A    between atoms: _180  and  _183
REMARK   75  A    between atoms: _183  and  _184
REMARK   76  A    between atoms: _189  and  _191
REMARK   77  A    between atoms: _191  and  _192
REMARK   78  A    between atoms: _191  and  _194
REMARK   79  A    between atoms: _197  and  _199
REMARK   80  A    between atoms: _199  and  _200
REMARK   81  A    between atoms: _199  and  _202
REMARK   82  A    between atoms: _202  and  _203
REMARK   83  A    between atoms: _206  and  _208
REMARK   84  A    between atoms: _208  and  _209
REMARK   85  A    between atoms: _211  and  _213
REMARK   86  A    between atoms: _213  and  _214
REMARK   87  A    between atoms: _213  and  _216
REMARK   88  A    between atoms: _216  and  _217
REMARK   89  A    between atoms: _217  and  _218
REMARK   90  A    between atoms: _218  and  _219
REMARK   91  A    between atoms: _228  and  _230
REMARK   92  A    between atoms: _230  and  _231
REMARK   93  A    between atoms: _230  and  _233
REMARK   94  A    between atoms: _233  and  _234
REMARK   95  A    between atoms: _239  and  _241
REMARK   96  A    between atoms: _241  and  _242
REMARK   97  A    between atoms: _241  and  _244
REMARK   98  A    between atoms: _244  and  _245
REMARK   99  A    between atoms: _245  and  _246
REMARK  100  A    between atoms: _246  and  _247
REMARK  101  A    between atoms: _256  and  _258
REMARK  102  A    between atoms: _258  and  _259
REMARK  103  A    between atoms: _258  and  _261
REMARK  104  A    between atoms: _261  and  _262
REMARK  105  A    between atoms: _265  and  _267
REMARK  106  A    between atoms: _267  and  _268
REMARK  107  A    between atoms: _267  and  _270
REMARK  108  A    between atoms: _270  and  _271
REMARK  109  A    between atoms: _274  and  _276
REMARK  110  A    between atoms: _276  and  _277
REMARK  111  A    between atoms: _276  and  _279
REMARK  112  A    between atoms: _279  and  _280
REMARK  113  A    between atoms: _283  and  _285
REMARK  114  A    between atoms: _285  and  _286
REMARK  115  A    between atoms: _285  and  _288
REMARK  116  A    between atoms: _288  and  _289
REMARK  117  A    between atoms: _292  and  _294
REMARK  118  A    between atoms: _294  and  _295
REMARK  119  A    between atoms: _297  and  _299
REMARK  120  A    between atoms: _299  and  _300
REMARK  121  A    between atoms: _303  and  _305
REMARK  122  A    between atoms: _305  and  _306
REMARK  123  A    between atoms: _305  and  _308
REMARK  124  A    between atoms: _308  and  _309
REMARK  125  A    between atoms: _312  and  _314
REMARK  126  A    between atoms: _314  and  _315
REMARK  127  A    between atoms: _314  and  _317
REMARK  128  A    between atoms: _317  and  _318
REMARK  129  A    between atoms: _321  and  _323
REMARK  130  A    between atoms: _323  and  _324
REMARK  131  A    between atoms: _323  and  _326
REMARK  132  A    between atoms: _326  and  _327
REMARK  133  A    between atoms: _330  and  _332
REMARK  134  A    between atoms: _332  and  _333
REMARK  135  A    between atoms: _332  and  _335
REMARK  136  A    between atoms: _338  and  _340
REMARK  137  A    between atoms: _340  and  _341
REMARK  138  A    between atoms: _340  and  _343
REMARK  139  A    between atoms: _343  and  _344
REMARK  140  A    between atoms: _347  and  _349
REMARK  141  A    between atoms: _349  and  _350
REMARK  142  A    between atoms: _349  and  _352
REMARK  143  A    between atoms: _352  and  _353
REMARK  144  A    between atoms: _353  and  _354
REMARK  145  A    between atoms: _356  and  _358
REMARK  146  A    between atoms: _358  and  _359
REMARK  147  A    between atoms: _358  and  _361
REMARK  148  A    between atoms: _361  and  _362
REMARK  149  A    between atoms: _365  and  _367
REMARK  150  A    between atoms: _367  and  _368
REMARK  151  A    between atoms: _371  and  _373
REMARK  152  A    between atoms: _373  and  _374
REMARK  153  A    between atoms: _376  and  _378
REMARK  154  A    between atoms: _378  and  _379
REMARK  155  A    between atoms: _378  and  _381
REMARK  156  A    between atoms: _381  and  _382
REMARK  157  A    between atoms: _385  and  _387
REMARK  158  A    between atoms: _387  and  _388
REMARK  159  A    between atoms: _390  and  _392
REMARK  160  A    between atoms: _392  and  _393
REMARK  161  A    between atoms: _395  and  _397
REMARK  162  A    between atoms: _397  and  _398
REMARK  163  A    between atoms: _397  and  _400
REMARK  164  A    between atoms: _400  and  _401
REMARK  165  A    between atoms: _407  and  _409
REMARK  166  A    between atoms: _409  and  _410
REMARK  167  A    between atoms: _409  and  _412
REMARK  168  A    between atoms: _415  and  _417
REMARK  169  A    between atoms: _417  and  _418
REMARK  170  A    between atoms: _417  and  _420
REMARK  171  A    between atoms: _423  and  _425
REMARK  172  A    between atoms: _425  and  _426
REMARK  173  A    between atoms: _425  and  _428
REMARK  174  A    between atoms: _428  and  _429
REMARK  175  A    between atoms: _432  and  _434
REMARK  176  A    between atoms: _434  and  _435
REMARK  177  A    between atoms: _434  and  _437
REMARK  178  A    between atoms: _437  and  _438
REMARK  179  A    between atoms: _442  and  _443
REMARK  180  A    between atoms: _448  and  _450
REMARK  181  A    between atoms: _450  and  _451
REMARK  182  A    between atoms: _454  and  _456
REMARK  183  A    between atoms: _456  and  _457
REMARK  184  A    between atoms: _456  and  _459
REMARK  185  A    between atoms: _459  and  _460
REMARK  186  A    between atoms: _465  and  _467
REMARK  187  A    between atoms: _467  and  _468
REMARK  188  A    between atoms: _467  and  _470
REMARK  189  A    between atoms: _473  and  _475
REMARK  190  A    between atoms: _475  and  _476
REMARK  191  A    between atoms: _475  and  _478
REMARK  192  A    between atoms: _478  and  _479
REMARK  193  A    between atoms: _482  and  _484
REMARK  194  A    between atoms: _484  and  _485
REMARK  195  A    between atoms: _487  and  _489
REMARK  196  A    between atoms: _489  and  _490
REMARK  197  A    between atoms: _489  and  _492
REMARK  198  A    between atoms: _492  and  _493
REMARK  199  A    between atoms: _493  and  _494
REMARK  200  A    between atoms: _494  and  _495
REMARK  201  A    between atoms: _504  and  _506
REMARK  202  A    between atoms: _506  and  _507
REMARK  203  A    between atoms: _506  and  _509
REMARK  204  A    between atoms: _509  and  _510
REMARK                            x       y       z     vdW  Elec       q    Type
REMARK                         _______ _______ _______ _____ _____    ______ ____
ROOT
ATOM      1  CA  LEU A   1      10.151  -0.996 -14.181  0.00  0.00    +0.133 C 
ENDROOT
BRANCH   1   2
ATOM      2  N   LEU A   1       9.592  -0.164 -13.121  0.00  0.00    -0.239 NA
ATOM      3  H   LEU A   1       8.569   0.025 -13.118  0.00  0.00    +0.142 HD
ENDBRANCH   1   2
BRANCH   1   4
ATOM      4  C   LEU A   1      10.426  -0.094 -15.375  0.00  0.00    +0.224 C 
ATOM      5  O   LEU A   1       9.534   0.612 -15.833  0.00  0.00    -0.287 OA
ENDBRANCH   1   4
BRANCH   1   6
ATOM      6  CB  LEU A   1       9.165  -2.116 -14.544  0.00  0.00    +0.025 C 
BRANCH   6   7
ATOM      7  CG  LEU A   1       8.703  -3.037 -13.404  0.00  0.00    +0.002 C 
ATOM      8  CD2 LEU A   1       9.807  -3.951 -12.915  0.00  0.00    +0.000 C 
ATOM      9  CD1 LEU A   1       7.497  -3.842 -13.846  0.00  0.00    +0.000 C 
ENDBRANCH   6   7
ENDBRANCH   1   6
TORSDOF 4
REMARK  Name = ../refined-set-2016/3t3c/3t3c_pocket.pdb
REMARK  204 active torsions:
REMARK  status: ('A' for Active; 'I' for Inactive)
REMARK    1  A    between atoms: _1  and  _3
REMARK    2  A    between atoms: _3  and  _4
REMARK    3  A    between atoms: _3  and  _6
REMARK    4  A    between atoms: _6  and  _7
REMARK    5  A    between atoms: _7  and  _8
REMARK    6  A    between atoms: _8  and  _9
REMARK    7  A    between atoms: _18  and  _20
REMARK    8  A    between atoms: _20  and  _21
REMARK    9  A    between atoms: _20  and  _23
REMARK   10  A    between atoms: _23  and  _24
REMARK   11  A    between atoms: _27  and  _29
REMARK   12  A    between atoms: _29  and  _30
REMARK   13  A    between atoms: _29  and  _32
REMARK   14  A    between atoms: _32  and  _33
REMARK   15  A    between atoms: _36  and  _38
REMARK   16  A    between atoms: _38  and  _39
REMARK   17  A    between atoms: _38  and  _41
REMARK   18  A    between atoms: _41  and  _42
REMARK   19  A    between atoms: _45  and  _47
REMARK   20  A    between atoms: _47  and  _48
REMARK   21  A    between atoms: _47  and  _50
REMARK   22  A    between atoms: _50  and  _51
REMARK   23  A    between atoms: _54  and  _56
REMARK   24  A    between atoms: _56  and  _57
REMARK   25  A    between atoms: _59  and  _61
REMARK   26  A    between atoms: _61  and  _62
REMARK   27  A    between atoms: _65  and  _67
REMARK   28  A    between atoms: _67  and  _68
REMARK   29  A    between atoms: _67  and  _70
REMARK   30  A    between atoms: _70  and  _71
REMARK   31  A    between atoms: _74  and  _76
REMARK   32  A    between atoms: _76  and  _77
REMARK   33  A    between atoms: _76  and  _79
REMARK   34  A    between atoms: _79  and  _80
REMARK   35  A    between atoms: _83  and  _85
REMARK   36  A    between atoms: _85  and  _86
REMARK   37  A    between atoms: _85  and  _88
REMARK   38  A    between atoms: _88  and  _89
REMARK   39  A    between atoms: _92  and  _94
REMARK   40  A    between atoms: _94  and  _95
REMARK   41  A    between atoms: _94  and  _97
REMARK   42  A    between atoms: _100  and  _102
REMARK   43  A    between atoms: _102  and  _103
REMARK   44  A    between atoms: _102  and  _105
REMARK   45  A    between atoms: _105  and  _106
REMARK   46  A    between atoms: _109  and  _111
REMARK   47  A    between atoms: _111  and  _112
REMARK   48  A    between atoms: _115  and  _117
REMARK   49  A    between atoms: _117  and  _118
REMARK   50  A    between atoms: _120  and  _122
REMARK   51  A    between atoms: _122  and  _123
REMARK   52  A    between atoms: _122  and  _125
REMARK   53  A    between atoms: _125  and  _126
REMARK   54  A    between atoms: _129  and  _131
REMARK   55  A    between atoms: _131  and  _132
REMARK   56  A    between atoms: _134  and  _136
REMARK   57  A    between atoms: _136  and  _137
REMARK   58  A    between atoms: _139  and  _141
REMARK   59  A    between atoms: _141  and  _142
REMARK   60  A    between atoms: _141  and  _144
REMARK   61  A    between atoms: _147  and  _149
REMARK   62  A    between atoms: _149  and  _150
REMARK   63  A    between atoms: _149  and  _152
REMARK   64  A    between atoms: _152  and  _153
REMARK   65  A    between atoms: _156  and  _158
REMARK   66  A    between atoms: _158  and  _159
REMARK   67  A    between atoms: _158  and  _161
REMARK   68  A    between atoms: _161  and  _162
REMARK   69  A    between atoms: _166  and  _167
REMARK   70  A    between atoms: _172  and  _174
REMARK   71  A    between atoms: _174  and  _175
REMARK   72  A    between atoms: _178  and  _180
REMARK   73  A    between atoms: _180  and  _181
REMARK   74  A    between atoms: _180  and  _183
REMARK   75  A    between atoms: _183  and  _184
REMARK   76  A    between atoms: _189  and  _191
REMARK   77  A    between atoms: _191  and  _192
REMARK   78  A    between atoms: _191  and  _194
REMARK   79  A    between atoms: _197  and  _199
REMARK   80  A    between atoms: _199  and  _200
REMARK   81  A    between atoms: _199  and  _202
REMARK   82  A    between atoms: _202  and  _203
REMARK   83  A    between atoms: _206  and  _208
REMARK   84  A    between atoms: _208  and  _209
REMARK   85  A    between atoms: _211  and  _213
REMARK   86  A    between atoms: _213  and  _214
REMARK   87  A    between atoms: _213  and  _216
REMARK   88  A    between atoms: _216  and  _217
REMARK   89  A    between atoms: _217  and  _218
REMARK   90  A    between atoms: _218  and  _219
REMARK   91  A    between atoms: _228  and  _230
REMARK   92  A    between atoms: _230  and  _231
REMARK   93  A    between atoms: _230  and  _233
REMARK   94  A    between atoms: _233  and  _234
REMARK   95  A    between atoms: _239  and  _241
REMARK   96  A    between atoms: _241  and  _242
REMARK   97  A    between atoms: _241  and  _244
REMARK   98  A    between atoms: _244  and  _245
REMARK   99  A    between atoms: _245  and  _246
REMARK  100  A    between atoms: _246  and  _247
REMARK  101  A    between atoms: _256  and  _258
REMARK  102  A    between atoms: _258  and  _259
REMARK  103  A    between atoms: _258  and  _261
REMARK  104  A    between atoms: _261  and  _262
REMARK  105  A    between atoms: _265  and  _267
REMARK  106  A    between atoms: _267  and  _268
REMARK  107  A    between atoms: _267  and  _270
REMARK  108  A    between atoms: _270  and  _271
REMARK  109  A    between atoms: _274  and  _276
REMARK  110  A    between atoms: _276  and  _277
REMARK  111  A    between atoms: _276  and  _279
REMARK  112  A    between atoms: _279  and  _280
REMARK  113  A    between atoms: _283  and  _285
REMARK  114  A    between atoms: _285  and  _286
REMARK  115  A    between atoms: _285  and  _288
REMARK  116  A    between atoms: _288  and  _289
REMARK  117  A    between atoms: _292  and  _294
REMARK  118  A    between atoms: _294  and  _295
REMARK  119  A    between atoms: _297  and  _299
REMARK  120  A    between atoms: _299  and  _300
REMARK  121  A    between atoms: _303  and  _305
REMARK  122  A    between atoms: _305  and  _306
REMARK  123  A    between atoms: _305  and  _308
REMARK  124  A    between atoms: _308  and  _309
REMARK  125  A    between atoms: _312  and  _314
REMARK  126  A    between atoms: _314  and  _315
REMARK  127  A    between atoms: _314  and  _317
REMARK  128  A    between atoms: _317  and  _318
REMARK  129  A    between atoms: _321  and  _323
REMARK  130  A    between atoms: _323  and  _324
REMARK  131  A    between atoms: _323  and  _326
REMARK  132  A    between atoms: _326  and  _327
REMARK  133  A    between atoms: _330  and  _332
REMARK  134  A    between atoms: _332  and  _333
REMARK  135  A    between atoms: _332  and  _335
REMARK  136  A    between atoms: _338  and  _340
REMARK  137  A    between atoms: _340  and  _341
REMARK  138  A    between atoms: _340  and  _343
REMARK  139  A    between atoms: _343  and  _344
REMARK  140  A    between atoms: _347  and  _349
REMARK  141  A    between atoms: _349  and  _350
REMARK  142  A    between atoms: _349  and  _352
REMARK  143  A    between atoms: _352  and  _353
REMARK  144  A    between atoms: _353  and  _354
REMARK  145  A    between atoms: _356  and  _358
REMARK  146  A    between atoms: _358  and  _359
REMARK  147  A    between atoms: _358  and  _361
REMARK  148  A    between atoms: _361  and  _362
REMARK  149  A    between atoms: _365  and  _367
REMARK  150  A    between atoms: _367  and  _368
REMARK  151  A    between atoms: _371  and  _373
REMARK  152  A    between atoms: _373  and  _374
REMARK  153  A    between atoms: _376  and  _378
REMARK  154  A    between atoms: _378  and  _379
REMARK  155  A    between atoms: _378  and  _381
REMARK  156  A    between atoms: _381  and  _382
REMARK  157  A    between atoms: _385  and  _387
REMARK  158  A    between atoms: _387  and  _388
REMARK  159  A    between atoms: _390  and  _392
REMARK  160  A    between atoms: _392  and  _393
REMARK  161  A    between atoms: _395  and  _397
REMARK  162  A    between atoms: _397  and  _398
REMARK  163  A    between atoms: _397  and  _400
REMARK  164  A    between atoms: _400  and  _401
REMARK  165  A    between atoms: _407  and  _409
REMARK  166  A    between atoms: _409  and  _410
REMARK  167  A    between atoms: _409  and  _412
REMARK  168  A    between atoms: _415  and  _417
REMARK  169  A    between atoms: _417  and  _418
REMARK  170  A    between atoms: _417  and  _420
REMARK  171  A    between atoms: _423  and  _425
REMARK  172  A    between atoms: _425  and  _426
REMARK  173  A    between atoms: _425  and  _428
REMARK  174  A    between atoms: _428  and  _429
REMARK  175  A    between atoms: _432  and  _434
REMARK  176  A    between atoms: _434  and  _435
REMARK  177  A    between atoms: _434  and  _437
REMARK  178  A    between atoms: _437  and  _438
REMARK  179  A    between atoms: _442  and  _443
REMARK  180  A    between atoms: _448  and  _450
REMARK  181  A    between atoms: _450  and  _451
REMARK  182  A    between atoms: _454  and  _456
REMARK  183  A    between atoms: _456  and  _457
REMARK  184  A    between atoms: _456  and  _459
REMARK  185  A    between atoms: _459  and  _460
REMARK  186  A    between atoms: _465  and  _467
REMARK  187  A    between atoms: _467  and  _468
REMARK  188  A    between atoms: _467  and  _470
REMARK  189  A    between atoms: _473  and  _475
REMARK  190  A    between atoms: _475  and  _476
REMARK  191  A    between atoms: _475  and  _478
REMARK  192  A    between atoms: _478  and  _479
REMARK  193  A    between atoms: _482  and  _484
REMARK  194  A    between atoms: _484  and  _485
REMARK  195  A    between atoms: _487  and  _489
REMARK  196  A    between atoms: _489  and  _490
REMARK  197  A    between atoms: _489  and  _492
REMARK  198  A    between atoms: _492  and  _493
REMARK  199  A    between atoms: _493  and  _494
REMARK  200  A    between atoms: _494  and  _495
REMARK  201  A    between atoms: _504  and  _506
REMARK  202  A    between atoms: _506  and  _507
REMARK  203  A    between atoms: _506  and  _509
REMARK  204  A    between atoms: _509  and  _510
REMARK                            x       y       z     vdW  Elec       q    Type
REMARK                         _______ _______ _______ _____ _____    ______ ____
ROOT
ATOM      1  C   VAL A   5       2.214   3.501 -15.233  0.00  0.00    +0.241 C 
ATOM      2  N   ILE A   6       1.388   4.138 -14.401  0.00  0.00    -0.297 N 
ATOM      3  H   ILE A   6       0.705   4.816 -14.795  0.00  0.00    +0.150 HD
ATOM      4  O   VAL A   5       3.293   3.014 -14.882  0.00  0.00    -0.273 OA
ENDROOT
BRANCH   2   5
ATOM      5  CA  ILE A   6       1.407   3.917 -12.949  0.00  0.00    +0.149 C 
BRANCH   5   6
ATOM      6  C   ILE A   6       0.474   2.725 -12.684  0.00  0.00    +0.241 C 
ATOM      7  N   GLY A   7       0.995   1.674 -12.067  0.00  0.00    -0.295 N 
ATOM      8  H   GLY A   7       1.984   1.705 -11.748  0.00  0.00    +0.150 HD
ATOM      9  O   ILE A   6      -0.695   2.759 -13.047  0.00  0.00    -0.273 OA
BRANCH   7  10
ATOM     10  CA  GLY A   7       0.206   0.485 -11.831  0.00  0.00    +0.176 C 
BRANCH  10  11
ATOM     11  C   GLY A   7      -0.254   0.409 -10.397  0.00  0.00    +0.243 C 
ATOM     12  O   GLY A   7      -0.058   1.341  -9.633  0.00  0.00    -0.273 OA
ATOM     13  N   ARG A   8      -0.850  -0.722 -10.048  0.00  0.00    -0.297 N 
ATOM     14  H   ARG A   8      -0.922  -1.482 -10.754  0.00  0.00    +0.150 HD
BRANCH  13  15
ATOM     15  CA  ARG A   8      -1.406  -0.949  -8.731  0.00  0.00    +0.149 C 
BRANCH  15  16
ATOM     16  C   ARG A   8      -0.374  -0.929  -7.598  0.00  0.00    +0.241 C 
ATOM     17  O   ARG A   8      -0.721  -0.570  -6.479  0.00  0.00    -0.273 OA
ATOM     18  N   ASN A   9       0.887  -1.288  -7.869  0.00  0.00    -0.298 N 
ATOM     19  H   ASN A   9       1.129  -1.657  -8.811  0.00  0.00    +0.150 HD
BRANCH  18  20
ATOM     20  CA  ASN A   9       1.937  -1.162  -6.835  0.00  0.00    +0.146 C 
BRANCH  20  21
ATOM     21  C   ASN A   9       1.995   0.229  -6.213  0.00  0.00    +0.227 C 
ATOM     22  O   ASN A   9       2.255   0.352  -5.019  0.00  0.00    -0.286 OA
ENDBRANCH  20  21
BRANCH  20  23
ATOM     23  CB  ASN A   9       3.338  -1.601  -7.323  0.00  0.00    +0.112 C 
BRANCH  23  24
ATOM     24  CG  ASN A   9       4.023  -0.562  -8.214  0.00  0.00    +0.222 C 
ATOM     25  ND2 ASN A   9       5.241  -0.158  -7.843  0.00  0.00    -0.329 N 
ATOM     26 HD21 ASN A   9       5.675  -0.541  -6.979  0.00  0.00    +0.145 HD
ATOM     27 HD22 ASN A   9       5.755   0.540  -8.418  0.00  0.00    +0.145 HD
ATOM     28  OD1 ASN A   9       3.472  -0.140  -9.221  0.00  0.00    -0.275 OA
ENDBRANCH  23  24
ENDBRANCH  20  23
ENDBRANCH  18  20
ENDBRANCH  15  16
BRANCH  15  29
ATOM     29  CB  ARG A   8      -2.202  -2.250  -8.704  0.00  0.00    +0.033 C 
BRANCH  29  30
ATOM     30  CG  ARG A   8      -3.420  -2.305  -9.647  0.00  0.00    +0.045 C 
BRANCH  30  31
ATOM     31  CD  ARG A   8      -4.200  -3.594  -9.424  0.00  0.00    +0.174 C 
BRANCH  31  32
ATOM     32  NE  ARG A   8      -3.376  -4.783  -9.645  0.00  0.00    -0.265 N 
ATOM     33  CZ  ARG A   8      -2.797  -5.521  -8.692  0.00  0.00    +0.342 C 
ATOM     34  NH2 ARG A   8      -2.947  -5.222  -7.420  0.00  0.00    -0.292 N 
ATOM     35 HH21 ARG A   8      -2.490  -5.806  -6.691  0.00  0.00    +0.255 HD
ATOM     36 HH22 ARG A   8      -3.523  -4.401  -7.143  0.00  0.00    +0.255 HD
ATOM     37  NH1 ARG A   8      -2.054  -6.578  -9.020  0.00  0.00    -0.292 N 
ATOM     38 HH11 ARG A   8      -1.605  -7.149  -8.276  0.00  0.00    +0.255 HD
ATOM     39 HH12 ARG A   8      -1.923  -6.831 -10.020  0.00  0.00    +0.255 HD
ATOM     40  HE  ARG A   8      -3.228  -5.080 -10.630  0.00  0.00    +0.259 HD
ENDBRANCH  31  32
ENDBRANCH  30  31
ENDBRANCH  29  30
ENDBRANCH  15  29
ENDBRANCH  13  15
ENDBRANCH  10  11
ENDBRANCH   7  10
ENDBRANCH   5   6
BRANCH   5  41
ATOM     41  CB  ILE A   6       0.896   5.154 -12.176  0.00  0.00    +0.027 C 
ATOM     42  CG2 ILE A   6       0.914   4.909 -10.677  0.00  0.00    +0.002 C 
BRANCH  41  43
ATOM     43  CG1 ILE A   6       1.694   6.412 -12.553  0.00  0.00    +0.002 C 
ATOM     44  CD1 ILE A   6       3.181   6.395 -12.165  0.00  0.00    +0.000 C 
ENDBRANCH  41  43
ENDBRANCH   5  41
ENDBRANCH   2   5
BRANCH   1  45
ATOM     45  CA  VAL A   5       1.761   3.449 -16.697  0.00  0.00    +0.149 C 
BRANCH  45  47
ATOM     46  C   ASN A   4       2.761   4.743 -18.523  0.00  0.00    +0.241 C 
ATOM     47  N   VAL A   5       2.849   3.765 -17.621  0.00  0.00    -0.297 N 
ATOM     48  H   VAL A   5       3.725   3.206 -17.573  0.00  0.00    +0.150 HD
ATOM     49  O   ASN A   4       1.757   5.459 -18.667  0.00  0.00    -0.273 OA
BRANCH  46  50
ATOM     50  CA  ASN A   4       3.964   4.891 -19.436  0.00  0.00    +0.158 C 
BRANCH  50  53
ATOM     51  C   ALA A   3       3.377   3.459 -21.304  0.00  0.00    +0.241 C 
ATOM     52  O   ALA A   3       3.734   2.448 -20.706  0.00  0.00    -0.273 OA
ATOM     53  N   ASN A   4       3.529   4.675 -20.803  0.00  0.00    -0.297 N 
ATOM     54  H   ASN A   4       3.331   5.499 -21.406  0.00  0.00    +0.150 HD
BRANCH  51  55
ATOM     55  CA  ALA A   3       2.728   3.385 -22.687  0.00  0.00    +0.149 C 
ATOM     56  CB  ALA A   3       1.291   2.908 -22.567  0.00  0.00    +0.031 C 
BRANCH  55  58
ATOM     57  C   PRO A   2       3.724   2.922 -24.858  0.00  0.00    +0.241 C 
ATOM     58  N   ALA A   3       3.474   2.535 -23.612  0.00  0.00    -0.297 N 
ATOM     59  H   ALA A   3       3.816   1.608 -23.288  0.00  0.00    +0.150 HD
ATOM     60  O   PRO A   2       3.296   3.983 -25.330  0.00  0.00    -0.273 OA
BRANCH  57  67
ATOM     61  C   THR A   1       6.294   1.223 -24.111  0.00  0.00    +0.244 C 
ATOM     62  O   THR A   1       6.744   2.363 -23.955  0.00  0.00    -0.273 OA
ATOM     63  N   PRO A   2       5.286   0.937 -24.971  0.00  0.00    -0.272 N 
ATOM     64  CD  PRO A   2       4.743  -0.397 -25.302  0.00  0.00    +0.094 C 
ATOM     65  CG  PRO A   2       3.519  -0.082 -26.101  0.00  0.00    +0.024 C 
ATOM     66  CB  PRO A   2       3.717   1.211 -26.711  0.00  0.00    +0.031 C 
ATOM     67  CA  PRO A   2       4.594   1.994 -25.719  0.00  0.00    +0.152 C 
BRANCH  61  68
ATOM     68  CA  THR A   1       6.858   0.070 -23.279  0.00  0.00    +0.172 C 
BRANCH  68  69
ATOM     69  N   THR A   1       8.301   0.141 -23.229  0.00  0.00    -0.236 NA
ATOM     70  H   THR A   1       8.768   0.592 -22.416  0.00  0.00    +0.142 HD
ENDBRANCH  68  69
BRANCH  68  71
ATOM     71  CB  THR A   1       6.248   0.127 -21.877  0.00  0.00    +0.135 C 
ATOM     72  CG2 THR A   1       6.724   1.360 -21.111  0.00  0.00    +0.034 C 
BRANCH  71  73
ATOM     73  OG1 THR A   1       4.819   0.166 -21.990  0.00  0.00    -0.383 OA
ATOM     74  HG1 THR A   1       4.418   0.203 -21.085  0.00  0.00    +0.210 HD
ENDBRANCH  71  73
ENDBRANCH  68  71
ENDBRANCH  61  68
ENDBRANCH  57  67
ENDBRANCH  55  58
ENDBRANCH  51  55
ENDBRANCH  50  53
BRANCH  50  75
ATOM     75  CB  ASN A   4       4.600   6.266 -19.302  0.00  0.00    +0.114 C 
BRANCH  75  76
ATOM     76  CG  ASN A   4       5.762   6.463 -20.263  0.00  0.00    +0.222 C 
ATOM     77  OD1 ASN A   4       6.697   5.664 -20.304  0.00  0.00    -0.275 OA
ATOM     78  ND2 ASN A   4       5.692   7.519 -21.056  0.00  0.00    -0.329 N 
ATOM     79 HD21 ASN A   4       4.883   8.168 -20.987  0.00  0.00    +0.145 HD
ATOM     80 HD22 ASN A   4       6.446   7.700 -21.749  0.00  0.00    +0.145 HD
ENDBRANCH  75  76
ENDBRANCH  50  75
ENDBRANCH  46  50
ENDBRANCH  45  47
BRANCH  45  81
ATOM     81  CB  VAL A   5       1.073   2.081 -17.015  0.00  0.00    +0.027 C 
ATOM     82  CG2 VAL A   5       2.022   0.899 -16.784  0.00  0.00    +0.002 C 
ATOM     83  CG1 VAL A   5       0.545   2.063 -18.436  0.00  0.00    +0.002 C 
ENDBRANCH  45  81
ENDBRANCH   1  45
TORSDOF 30
REMARK  Name = ../refined-set-2016/3t3c/3t3c_pocket.pdb
REMARK  204 active torsions:
REMARK  status: ('A' for Active; 'I' for Inactive)
REMARK    1  A    between atoms: _1  and  _3
REMARK    2  A    between atoms: _3  and  _4
REMARK    3  A    between atoms: _3  and  _6
REMARK    4  A    between atoms: _6  and  _7
REMARK    5  A    between atoms: _7  and  _8
REMARK    6  A    between atoms: _8  and  _9
REMARK    7  A    between atoms: _18  and  _20
REMARK    8  A    between atoms: _20  and  _21
REMARK    9  A    between atoms: _20  and  _23
REMARK   10  A    between atoms: _23  and  _24
REMARK   11  A    between atoms: _27  and  _29
REMARK   12  A    between atoms: _29  and  _30
REMARK   13  A    between atoms: _29  and  _32
REMARK   14  A    between atoms: _32  and  _33
REMARK   15  A    between atoms: _36  and  _38
REMARK   16  A    between atoms: _38  and  _39
REMARK   17  A    between atoms: _38  and  _41
REMARK   18  A    between atoms: _41  and  _42
REMARK   19  A    between atoms: _45  and  _47
REMARK   20  A    between atoms: _47  and  _48
REMARK   21  A    between atoms: _47  and  _50
REMARK   22  A    between atoms: _50  and  _51
REMARK   23  A    between atoms: _54  and  _56
REMARK   24  A    between atoms: _56  and  _57
REMARK   25  A    between atoms: _59  and  _61
REMARK   26  A    between atoms: _61  and  _62
REMARK   27  A    between atoms: _65  and  _67
REMARK   28  A    between atoms: _67  and  _68
REMARK   29  A    between atoms: _67  and  _70
REMARK   30  A    between atoms: _70  and  _71
REMARK   31  A    between atoms: _74  and  _76
REMARK   32  A    between atoms: _76  and  _77
REMARK   33  A    between atoms: _76  and  _79
REMARK   34  A    between atoms: _79  and  _80
REMARK   35  A    between atoms: _83  and  _85
REMARK   36  A    between atoms: _85  and  _86
REMARK   37  A    between atoms: _85  and  _88
REMARK   38  A    between atoms: _88  and  _89
REMARK   39  A    between atoms: _92  and  _94
REMARK   40  A    between atoms: _94  and  _95
REMARK   41  A    between atoms: _94  and  _97
REMARK   42  A    between atoms: _100  and  _102
REMARK   43  A    between atoms: _102  and  _103
REMARK   44  A    between atoms: _102  and  _105
REMARK   45  A    between atoms: _105  and  _106
REMARK   46  A    between atoms: _109  and  _111
REMARK   47  A    between atoms: _111  and  _112
REMARK   48  A    between atoms: _115  and  _117
REMARK   49  A    between atoms: _117  and  _118
REMARK   50  A    between atoms: _120  and  _122
REMARK   51  A    between atoms: _122  and  _123
REMARK   52  A    between atoms: _122  and  _125
REMARK   53  A    between atoms: _125  and  _126
REMARK   54  A    between atoms: _129  and  _131
REMARK   55  A    between atoms: _131  and  _132
REMARK   56  A    between atoms: _134  and  _136
REMARK   57  A    between atoms: _136  and  _137
REMARK   58  A    between atoms: _139  and  _141
REMARK   59  A    between atoms: _141  and  _142
REMARK   60  A    between atoms: _141  and  _144
REMARK   61  A    between atoms: _147  and  _149
REMARK   62  A    between atoms: _149  and  _150
REMARK   63  A    between atoms: _149  and  _152
REMARK   64  A    between atoms: _152  and  _153
REMARK   65  A    between atoms: _156  and  _158
REMARK   66  A    between atoms: _158  and  _159
REMARK   67  A    between atoms: _158  and  _161
REMARK   68  A    between atoms: _161  and  _162
REMARK   69  A    between atoms: _166  and  _167
REMARK   70  A    between atoms: _172  and  _174
REMARK   71  A    between atoms: _174  and  _175
REMARK   72  A    between atoms: _178  and  _180
REMARK   73  A    between atoms: _180  and  _181
REMARK   74  A    between atoms: _180  and  _183
REMARK   75  A    between atoms: _183  and  _184
REMARK   76  A    between atoms: _189  and  _191
REMARK   77  A    between atoms: _191  and  _192
REMARK   78  A    between atoms: _191  and  _194
REMARK   79  A    between atoms: _197  and  _199
REMARK   80  A    between atoms: _199  and  _200
REMARK   81  A    between atoms: _199  and  _202
REMARK   82  A    between atoms: _202  and  _203
REMARK   83  A    between atoms: _206  and  _208
REMARK   84  A    between atoms: _208  and  _209
REMARK   85  A    between atoms: _211  and  _213
REMARK   86  A    between atoms: _213  and  _214
REMARK   87  A    between atoms: _213  and  _216
REMARK   88  A    between atoms: _216  and  _217
REMARK   89  A    between atoms: _217  and  _218
REMARK   90  A    between atoms: _218  and  _219
REMARK   91  A    between atoms: _228  and  _230
REMARK   92  A    between atoms: _230  and  _231
REMARK   93  A    between atoms: _230  and  _233
REMARK   94  A    between atoms: _233  and  _234
REMARK   95  A    between atoms: _239  and  _241
REMARK   96  A    between atoms: _241  and  _242
REMARK   97  A    between atoms: _241  and  _244
REMARK   98  A    between atoms: _244  and  _245
REMARK   99  A    between atoms: _245  and  _246
REMARK  100  A    between atoms: _246  and  _247
REMARK  101  A    between atoms: _256  and  _258
REMARK  102  A    between atoms: _258  and  _259
REMARK  103  A    between atoms: _258  and  _261
REMARK  104  A    between atoms: _261  and  _262
REMARK  105  A    between atoms: _265  and  _267
REMARK  106  A    between atoms: _267  and  _268
REMARK  107  A    between atoms: _267  and  _270
REMARK  108  A    between atoms: _270  and  _271
REMARK  109  A    between atoms: _274  and  _276
REMARK  110  A    between atoms: _276  and  _277
REMARK  111  A    between atoms: _276  and  _279
REMARK  112  A    between atoms: _279  and  _280
REMARK  113  A    between atoms: _283  and  _285
REMARK  114  A    between atoms: _285  and  _286
REMARK  115  A    between atoms: _285  and  _288
REMARK  116  A    between atoms: _288  and  _289
REMARK  117  A    between atoms: _292  and  _294
REMARK  118  A    between atoms: _294  and  _295
REMARK  119  A    between atoms: _297  and  _299
REMARK  120  A    between atoms: _299  and  _300
REMARK  121  A    between atoms: _303  and  _305
REMARK  122  A    between atoms: _305  and  _306
REMARK  123  A    between atoms: _305  and  _308
REMARK  124  A    between atoms: _308  and  _309
REMARK  125  A    between atoms: _312  and  _314
REMARK  126  A    between atoms: _314  and  _315
REMARK  127  A    between atoms: _314  and  _317
REMARK  128  A    between atoms: _317  and  _318
REMARK  129  A    between atoms: _321  and  _323
REMARK  130  A    between atoms: _323  and  _324
REMARK  131  A    between atoms: _323  and  _326
REMARK  132  A    between atoms: _326  and  _327
REMARK  133  A    between atoms: _330  and  _332
REMARK  134  A    between atoms: _332  and  _333
REMARK  135  A    between atoms: _332  and  _335
REMARK  136  A    between atoms: _338  and  _340
REMARK  137  A    between atoms: _340  and  _341
REMARK  138  A    between atoms: _340  and  _343
REMARK  139  A    between atoms: _343  and  _344
REMARK  140  A    between atoms: _347  and  _349
REMARK  141  A    between atoms: _349  and  _350
REMARK  142  A    between atoms: _349  and  _352
REMARK  143  A    between atoms: _352  and  _353
REMARK  144  A    between atoms: _353  and  _354
REMARK  145  A    between atoms: _356  and  _358
REMARK  146  A    between atoms: _358  and  _359
REMARK  147  A    between atoms: _358  and  _361
REMARK  148  A    between atoms: _361  and  _362
REMARK  149  A    between atoms: _365  and  _367
REMARK  150  A    between atoms: _367  and  _368
REMARK  151  A    between atoms: _371  and  _373
REMARK  152  A    between atoms: _373  and  _374
REMARK  153  A    between atoms: _376  and  _378
REMARK  154  A    between atoms: _378  and  _379
REMARK  155  A    between atoms: _378  and  _381
REMARK  156  A    between atoms: _381  and  _382
REMARK  157  A    between atoms: _385  and  _387
REMARK  158  A    between atoms: _387  and  _388
REMARK  159  A    between atoms: _390  and  _392
REMARK  160  A    between atoms: _392  and  _393
REMARK  161  A    between atoms: _395  and  _397
REMARK  162  A    between atoms: _397  and  _398
REMARK  163  A    between atoms: _397  and  _400
REMARK  164  A    between atoms: _400  and  _401
REMARK  165  A    between atoms: _407  and  _409
REMARK  166  A    between atoms: _409  and  _410
REMARK  167  A    between atoms: _409  and  _412
REMARK  168  A    between atoms: _415  and  _417
REMARK  169  A    between atoms: _417  and  _418
REMARK  170  A    between atoms: _417  and  _420
REMARK  171  A    between atoms: _423  and  _425
REMARK  172  A    between atoms: _425  and  _426
REMARK  173  A    between atoms: _425  and  _428
REMARK  174  A    between atoms: _428  and  _429
REMARK  175  A    between atoms: _432  and  _434
REMARK  176  A    between atoms: _434  and  _435
REMARK  177  A    between atoms: _434  and  _437
REMARK  178  A    between atoms: _437  and  _438
REMARK  179  A    between atoms: _442  and  _443
REMARK  180  A    between atoms: _448  and  _450
REMARK  181  A    between atoms: _450  and  _451
REMARK  182  A    between atoms: _454  and  _456
REMARK  183  A    between atoms: _456  and  _457
REMARK  184  A    between atoms: _456  and  _459
REMARK  185  A    between atoms: _459  and  _460
REMARK  186  A    between atoms: _465  and  _467
REMARK  187  A    between atoms: _467  and  _468
REMARK  188  A    between atoms: _467  and  _470
REMARK  189  A    between atoms: _473  and  _475
REMARK  190  A    between atoms: _475  and  _476
REMARK  191  A    between atoms: _475  and  _478
REMARK  192  A    between atoms: _478  and  _479
REMARK  193  A    between atoms: _482  and  _484
REMARK  194  A    between atoms: _484  and  _485
REMARK  195  A    between atoms: _487  and  _489
REMARK  196  A    between atoms: _489  and  _490
REMARK  197  A    between atoms: _489  and  _492
REMARK  198  A    between atoms: _492  and  _493
REMARK  199  A    between atoms: _493  and  _494
REMARK  200  A    between atoms: _494  and  _495
REMARK  201  A    between atoms: _504  and  _506
REMARK  202  A    between atoms: _506  and  _507
REMARK  203  A    between atoms: _506  and  _509
REMARK  204  A    between atoms: _509  and  _510
REMARK                            x       y       z     vdW  Elec       q    Type
REMARK                         _______ _______ _______ _____ _____    ______ ____
ROOT
ATOM      1  O   HOH     1      -0.831  -4.808 -23.329  0.00  0.00    +0.000 OA
ENDROOT
TORSDOF 0
REMARK  Name = ../refined-set-2016/3t3c/3t3c_pocket.pdb
REMARK  204 active torsions:
REMARK  status: ('A' for Active; 'I' for Inactive)
REMARK    1  A    between atoms: _1  and  _3
REMARK    2  A    between atoms: _3  and  _4
REMARK    3  A    between atoms: _3  and  _6
REMARK    4  A    between atoms: _6  and  _7
REMARK    5  A    between atoms: _7  and  _8
REMARK    6  A    between atoms: _8  and  _9
REMARK    7  A    between atoms: _18  and  _20
REMARK    8  A    between atoms: _20  and  _21
REMARK    9  A    between atoms: _20  and  _23
REMARK   10  A    between atoms: _23  and  _24
REMARK   11  A    between atoms: _27  and  _29
REMARK   12  A    between atoms: _29  and  _30
REMARK   13  A    between atoms: _29  and  _32
REMARK   14  A    between atoms: _32  and  _33
REMARK   15  A    between atoms: _36  and  _38
REMARK   16  A    between atoms: _38  and  _39
REMARK   17  A    between atoms: _38  and  _41
REMARK   18  A    between atoms: _41  and  _42
REMARK   19  A    between atoms: _45  and  _47
REMARK   20  A    between atoms: _47  and  _48
REMARK   21  A    between atoms: _47  and  _50
REMARK   22  A    between atoms: _50  and  _51
REMARK   23  A    between atoms: _54  and  _56
REMARK   24  A    between atoms: _56  and  _57
REMARK   25  A    between atoms: _59  and  _61
REMARK   26  A    between atoms: _61  and  _62
REMARK   27  A    between atoms: _65  and  _67
REMARK   28  A    between atoms: _67  and  _68
REMARK   29  A    between atoms: _67  and  _70
REMARK   30  A    between atoms: _70  and  _71
REMARK   31  A    between atoms: _74  and  _76
REMARK   32  A    between atoms: _76  and  _77
REMARK   33  A    between atoms: _76  and  _79
REMARK   34  A    between atoms: _79  and  _80
REMARK   35  A    between atoms: _83  and  _85
REMARK   36  A    between atoms: _85  and  _86
REMARK   37  A    between atoms: _85  and  _88
REMARK   38  A    between atoms: _88  and  _89
REMARK   39  A    between atoms: _92  and  _94
REMARK   40  A    between atoms: _94  and  _95
REMARK   41  A    between atoms: _94  and  _97
REMARK   42  A    between atoms: _100  and  _102
REMARK   43  A    between atoms: _102  and  _103
REMARK   44  A    between atoms: _102  and  _105
REMARK   45  A    between atoms: _105  and  _106
REMARK   46  A    between atoms: _109  and  _111
REMARK   47  A    between atoms: _111  and  _112
REMARK   48  A    between atoms: _115  and  _117
REMARK   49  A    between atoms: _117  and  _118
REMARK   50  A    between atoms: _120  and  _122
REMARK   51  A    between atoms: _122  and  _123
REMARK   52  A    between atoms: _122  and  _125
REMARK   53  A    between atoms: _125  and  _126
REMARK   54  A    between atoms: _129  and  _131
REMARK   55  A    between atoms: _131  and  _132
REMARK   56  A    between atoms: _134  and  _136
REMARK   57  A    between atoms: _136  and  _137
REMARK   58  A    between atoms: _139  and  _141
REMARK   59  A    between atoms: _141  and  _142
REMARK   60  A    between atoms: _141  and  _144
REMARK   61  A    between atoms: _147  and  _149
REMARK   62  A    between atoms: _149  and  _150
REMARK   63  A    between atoms: _149  and  _152
REMARK   64  A    between atoms: _152  and  _153
REMARK   65  A    between atoms: _156  and  _158
REMARK   66  A    between atoms: _158  and  _159
REMARK   67  A    between atoms: _158  and  _161
REMARK   68  A    between atoms: _161  and  _162
REMARK   69  A    between atoms: _166  and  _167
REMARK   70  A    between atoms: _172  and  _174
REMARK   71  A    between atoms: _174  and  _175
REMARK   72  A    between atoms: _178  and  _180
REMARK   73  A    between atoms: _180  and  _181
REMARK   74  A    between atoms: _180  and  _183
REMARK   75  A    between atoms: _183  and  _184
REMARK   76  A    between atoms: _189  and  _191
REMARK   77  A    between atoms: _191  and  _192
REMARK   78  A    between atoms: _191  and  _194
REMARK   79  A    between atoms: _197  and  _199
REMARK   80  A    between atoms: _199  and  _200
REMARK   81  A    between atoms: _199  and  _202
REMARK   82  A    between atoms: _202  and  _203
REMARK   83  A    between atoms: _206  and  _208
REMARK   84  A    between atoms: _208  and  _209
REMARK   85  A    between atoms: _211  and  _213
REMARK   86  A    between atoms: _213  and  _214
REMARK   87  A    between atoms: _213  and  _216
REMARK   88  A    between atoms: _216  and  _217
REMARK   89  A    between atoms: _217  and  _218
REMARK   90  A    between atoms: _218  and  _219
REMARK   91  A    between atoms: _228  and  _230
REMARK   92  A    between atoms: _230  and  _231
REMARK   93  A    between atoms: _230  and  _233
REMARK   94  A    between atoms: _233  and  _234
REMARK   95  A    between atoms: _239  and  _241
REMARK   96  A    between atoms: _241  and  _242
REMARK   97  A    between atoms: _241  and  _244
REMARK   98  A    between atoms: _244  and  _245
REMARK   99  A    between atoms: _245  and  _246
REMARK  100  A    between atoms: _246  and  _247
REMARK  101  A    between atoms: _256  and  _258
REMARK  102  A    between atoms: _258  and  _259
REMARK  103  A    between atoms: _258  and  _261
REMARK  104  A    between atoms: _261  and  _262
REMARK  105  A    between atoms: _265  and  _267
REMARK  106  A    between atoms: _267  and  _268
REMARK  107  A    between atoms: _267  and  _270
REMARK  108  A    between atoms: _270  and  _271
REMARK  109  A    between atoms: _274  and  _276
REMARK  110  A    between atoms: _276  and  _277
REMARK  111  A    between atoms: _276  and  _279
REMARK  112  A    between atoms: _279  and  _280
REMARK  113  A    between atoms: _283  and  _285
REMARK  114  A    between atoms: _285  and  _286
REMARK  115  A    between atoms: _285  and  _288
REMARK  116  A    between atoms: _288  and  _289
REMARK  117  A    between atoms: _292  and  _294
REMARK  118  A    between atoms: _294  and  _295
REMARK  119  A    between atoms: _297  and  _299
REMARK  120  A    between atoms: _299  and  _300
REMARK  121  A    between atoms: _303  and  _305
REMARK  122  A    between atoms: _305  and  _306
REMARK  123  A    between atoms: _305  and  _308
REMARK  124  A    between atoms: _308  and  _309
REMARK  125  A    between atoms: _312  and  _314
REMARK  126  A    between atoms: _314  and  _315
REMARK  127  A    between atoms: _314  and  _317
REMARK  128  A    between atoms: _317  and  _318
REMARK  129  A    between atoms: _321  and  _323
REMARK  130  A    between atoms: _323  and  _324
REMARK  131  A    between atoms: _323  and  _326
REMARK  132  A    between atoms: _326  and  _327
REMARK  133  A    between atoms: _330  and  _332
REMARK  134  A    between atoms: _332  and  _333
REMARK  135  A    between atoms: _332  and  _335
REMARK  136  A    between atoms: _338  and  _340
REMARK  137  A    between atoms: _340  and  _341
REMARK  138  A    between atoms: _340  and  _343
REMARK  139  A    between atoms: _343  and  _344
REMARK  140  A    between atoms: _347  and  _349
REMARK  141  A    between atoms: _349  and  _350
REMARK  142  A    between atoms: _349  and  _352
REMARK  143  A    between atoms: _352  and  _353
REMARK  144  A    between atoms: _353  and  _354
REMARK  145  A    between atoms: _356  and  _358
REMARK  146  A    between atoms: _358  and  _359
REMARK  147  A    between atoms: _358  and  _361
REMARK  148  A    between atoms: _361  and  _362
REMARK  149  A    between atoms: _365  and  _367
REMARK  150  A    between atoms: _367  and  _368
REMARK  151  A    between atoms: _371  and  _373
REMARK  152  A    between atoms: _373  and  _374
REMARK  153  A    between atoms: _376  and  _378
REMARK  154  A    between atoms: _378  and  _379
REMARK  155  A    between atoms: _378  and  _381
REMARK  156  A    between atoms: _381  and  _382
REMARK  157  A    between atoms: _385  and  _387
REMARK  158  A    between atoms: _387  and  _388
REMARK  159  A    between atoms: _390  and  _392
REMARK  160  A    between atoms: _392  and  _393
REMARK  161  A    between atoms: _395  and  _397
REMARK  162  A    between atoms: _397  and  _398
REMARK  163  A    between atoms: _397  and  _400
REMARK  164  A    between atoms: _400  and  _401
REMARK  165  A    between atoms: _407  and  _409
REMARK  166  A    between atoms: _409  and  _410
REMARK  167  A    between atoms: _409  and  _412
REMARK  168  A    between atoms: _415  and  _417
REMARK  169  A    between atoms: _417  and  _418
REMARK  170  A    between atoms: _417  and  _420
REMARK  171  A    between atoms: _423  and  _425
REMARK  172  A    between atoms: _425  and  _426
REMARK  173  A    between atoms: _425  and  _428
REMARK  174  A    between atoms: _428  and  _429
REMARK  175  A    between atoms: _432  and  _434
REMARK  176  A    between atoms: _434  and  _435
REMARK  177  A    between atoms: _434  and  _437
REMARK  178  A    between atoms: _437  and  _438
REMARK  179  A    between atoms: _442  and  _443
REMARK  180  A    between atoms: _448  and  _450
REMARK  181  A    between atoms: _450  and  _451
REMARK  182  A    between atoms: _454  and  _456
REMARK  183  A    between atoms: _456  and  _457
REMARK  184  A    between atoms: _456  and  _459
REMARK  185  A    between atoms: _459  and  _460
REMARK  186  A    between atoms: _465  and  _467
REMARK  187  A    between atoms: _467  and  _468
REMARK  188  A    between atoms: _467  and  _470
REMARK  189  A    between atoms: _473  and  _475
REMARK  190  A    between atoms: _475  and  _476
REMARK  191  A    between atoms: _475  and  _478
REMARK  192  A    between atoms: _478  and  _479
REMARK  193  A    between atoms: _482  and  _484
REMARK  194  A    between atoms: _484  and  _485
REMARK  195  A    between atoms: _487  and  _489
REMARK  196  A    between atoms: _489  and  _490
REMARK  197  A    between atoms: _489  and  _492
REMARK  198  A    between atoms: _492  and  _493
REMARK  199  A    between atoms: _493  and  _494
REMARK  200  A    between atoms: _494  and  _495
REMARK  201  A    between atoms: _504  and  _506
REMARK  202  A    between atoms: _506  and  _507
REMARK  203  A    between atoms: _506  and  _509
REMARK  204  A    between atoms: _509  and  _510
REMARK                            x       y       z     vdW  Elec       q    Type
REMARK                         _______ _______ _______ _____ _____    ______ ____
ROOT
ATOM      1  O   HOH     1       6.318  -3.426 -27.966  0.00  0.00    +0.000 OA
ENDROOT
TORSDOF 0
REMARK  Name = ../refined-set-2016/3t3c/3t3c_pocket.pdb
REMARK  204 active torsions:
REMARK  status: ('A' for Active; 'I' for Inactive)
REMARK    1  A    between atoms: _1  and  _3
REMARK    2  A    between atoms: _3  and  _4
REMARK    3  A    between atoms: _3  and  _6
REMARK    4  A    between atoms: _6  and  _7
REMARK    5  A    between atoms: _7  and  _8
REMARK    6  A    between atoms: _8  and  _9
REMARK    7  A    between atoms: _18  and  _20
REMARK    8  A    between atoms: _20  and  _21
REMARK    9  A    between atoms: _20  and  _23
REMARK   10  A    between atoms: _23  and  _24
REMARK   11  A    between atoms: _27  and  _29
REMARK   12  A    between atoms: _29  and  _30
REMARK   13  A    between atoms: _29  and  _32
REMARK   14  A    between atoms: _32  and  _33
REMARK   15  A    between atoms: _36  and  _38
REMARK   16  A    between atoms: _38  and  _39
REMARK   17  A    between atoms: _38  and  _41
REMARK   18  A    between atoms: _41  and  _42
REMARK   19  A    between atoms: _45  and  _47
REMARK   20  A    between atoms: _47  and  _48
REMARK   21  A    between atoms: _47  and  _50
REMARK   22  A    between atoms: _50  and  _51
REMARK   23  A    between atoms: _54  and  _56
REMARK   24  A    between atoms: _56  and  _57
REMARK   25  A    between atoms: _59  and  _61
REMARK   26  A    between atoms: _61  and  _62
REMARK   27  A    between atoms: _65  and  _67
REMARK   28  A    between atoms: _67  and  _68
REMARK   29  A    between atoms: _67  and  _70
REMARK   30  A    between atoms: _70  and  _71
REMARK   31  A    between atoms: _74  and  _76
REMARK   32  A    between atoms: _76  and  _77
REMARK   33  A    between atoms: _76  and  _79
REMARK   34  A    between atoms: _79  and  _80
REMARK   35  A    between atoms: _83  and  _85
REMARK   36  A    between atoms: _85  and  _86
REMARK   37  A    between atoms: _85  and  _88
REMARK   38  A    between atoms: _88  and  _89
REMARK   39  A    between atoms: _92  and  _94
REMARK   40  A    between atoms: _94  and  _95
REMARK   41  A    between atoms: _94  and  _97
REMARK   42  A    between atoms: _100  and  _102
REMARK   43  A    between atoms: _102  and  _103
REMARK   44  A    between atoms: _102  and  _105
REMARK   45  A    between atoms: _105  and  _106
REMARK   46  A    between atoms: _109  and  _111
REMARK   47  A    between atoms: _111  and  _112
REMARK   48  A    between atoms: _115  and  _117
REMARK   49  A    between atoms: _117  and  _118
REMARK   50  A    between atoms: _120  and  _122
REMARK   51  A    between atoms: _122  and  _123
REMARK   52  A    between atoms: _122  and  _125
REMARK   53  A    between atoms: _125  and  _126
REMARK   54  A    between atoms: _129  and  _131
REMARK   55  A    between atoms: _131  and  _132
REMARK   56  A    between atoms: _134  and  _136
REMARK   57  A    between atoms: _136  and  _137
REMARK   58  A    between atoms: _139  and  _141
REMARK   59  A    between atoms: _141  and  _142
REMARK   60  A    between atoms: _141  and  _144
REMARK   61  A    between atoms: _147  and  _149
REMARK   62  A    between atoms: _149  and  _150
REMARK   63  A    between atoms: _149  and  _152
REMARK   64  A    between atoms: _152  and  _153
REMARK   65  A    between atoms: _156  and  _158
REMARK   66  A    between atoms: _158  and  _159
REMARK   67  A    between atoms: _158  and  _161
REMARK   68  A    between atoms: _161  and  _162
REMARK   69  A    between atoms: _166  and  _167
REMARK   70  A    between atoms: _172  and  _174
REMARK   71  A    between atoms: _174  and  _175
REMARK   72  A    between atoms: _178  and  _180
REMARK   73  A    between atoms: _180  and  _181
REMARK   74  A    between atoms: _180  and  _183
REMARK   75  A    between atoms: _183  and  _184
REMARK   76  A    between atoms: _189  and  _191
REMARK   77  A    between atoms: _191  and  _192
REMARK   78  A    between atoms: _191  and  _194
REMARK   79  A    between atoms: _197  and  _199
REMARK   80  A    between atoms: _199  and  _200
REMARK   81  A    between atoms: _199  and  _202
REMARK   82  A    between atoms: _202  and  _203
REMARK   83  A    between atoms: _206  and  _208
REMARK   84  A    between atoms: _208  and  _209
REMARK   85  A    between atoms: _211  and  _213
REMARK   86  A    between atoms: _213  and  _214
REMARK   87  A    between atoms: _213  and  _216
REMARK   88  A    between atoms: _216  and  _217
REMARK   89  A    between atoms: _217  and  _218
REMARK   90  A    between atoms: _218  and  _219
REMARK   91  A    between atoms: _228  and  _230
REMARK   92  A    between atoms: _230  and  _231
REMARK   93  A    between atoms: _230  and  _233
REMARK   94  A    between atoms: _233  and  _234
REMARK   95  A    between atoms: _239  and  _241
REMARK   96  A    between atoms: _241  and  _242
REMARK   97  A    between atoms: _241  and  _244
REMARK   98  A    between atoms: _244  and  _245
REMARK   99  A    between atoms: _245  and  _246
REMARK  100  A    between atoms: _246  and  _247
REMARK  101  A    between atoms: _256  and  _258
REMARK  102  A    between atoms: _258  and  _259
REMARK  103  A    between atoms: _258  and  _261
REMARK  104  A    between atoms: _261  and  _262
REMARK  105  A    between atoms: _265  and  _267
REMARK  106  A    between atoms: _267  and  _268
REMARK  107  A    between atoms: _267  and  _270
REMARK  108  A    between atoms: _270  and  _271
REMARK  109  A    between atoms: _274  and  _276
REMARK  110  A    between atoms: _276  and  _277
REMARK  111  A    between atoms: _276  and  _279
REMARK  112  A    between atoms: _279  and  _280
REMARK  113  A    between atoms: _283  and  _285
REMARK  114  A    between atoms: _285  and  _286
REMARK  115  A    between atoms: _285  and  _288
REMARK  116  A    between atoms: _288  and  _289
REMARK  117  A    between atoms: _292  and  _294
REMARK  118  A    between atoms: _294  and  _295
REMARK  119  A    between atoms: _297  and  _299
REMARK  120  A    between atoms: _299  and  _300
REMARK  121  A    between atoms: _303  and  _305
REMARK  122  A    between atoms: _305  and  _306
REMARK  123  A    between atoms: _305  and  _308
REMARK  124  A    between atoms: _308  and  _309
REMARK  125  A    between atoms: _312  and  _314
REMARK  126  A    between atoms: _314  and  _315
REMARK  127  A    between atoms: _314  and  _317
REMARK  128  A    between atoms: _317  and  _318
REMARK  129  A    between atoms: _321  and  _323
REMARK  130  A    between atoms: _323  and  _324
REMARK  131  A    between atoms: _323  and  _326
REMARK  132  A    between atoms: _326  and  _327
REMARK  133  A    between atoms: _330  and  _332
REMARK  134  A    between atoms: _332  and  _333
REMARK  135  A    between atoms: _332  and  _335
REMARK  136  A    between atoms: _338  and  _340
REMARK  137  A    between atoms: _340  and  _341
REMARK  138  A    between atoms: _340  and  _343
REMARK  139  A    between atoms: _343  and  _344
REMARK  140  A    between atoms: _347  and  _349
REMARK  141  A    between atoms: _349  and  _350
REMARK  142  A    between atoms: _349  and  _352
REMARK  143  A    between atoms: _352  and  _353
REMARK  144  A    between atoms: _353  and  _354
REMARK  145  A    between atoms: _356  and  _358
REMARK  146  A    between atoms: _358  and  _359
REMARK  147  A    between atoms: _358  and  _361
REMARK  148  A    between atoms: _361  and  _362
REMARK  149  A    between atoms: _365  and  _367
REMARK  150  A    between atoms: _367  and  _368
REMARK  151  A    between atoms: _371  and  _373
REMARK  152  A    between atoms: _373  and  _374
REMARK  153  A    between atoms: _376  and  _378
REMARK  154  A    between atoms: _378  and  _379
REMARK  155  A    between atoms: _378  and  _381
REMARK  156  A    between atoms: _381  and  _382
REMARK  157  A    between atoms: _385  and  _387
REMARK  158  A    between atoms: _387  and  _388
REMARK  159  A    between atoms: _390  and  _392
REMARK  160  A    between atoms: _392  and  _393
REMARK  161  A    between atoms: _395  and  _397
REMARK  162  A    between atoms: _397  and  _398
REMARK  163  A    between atoms: _397  and  _400
REMARK  164  A    between atoms: _400  and  _401
REMARK  165  A    between atoms: _407  and  _409
REMARK  166  A    between atoms: _409  and  _410
REMARK  167  A    between atoms: _409  and  _412
REMARK  168  A    between atoms: _415  and  _417
REMARK  169  A    between atoms: _417  and  _418
REMARK  170  A    between atoms: _417  and  _420
REMARK  171  A    between atoms: _423  and  _425
REMARK  172  A    between atoms: _425  and  _426
REMARK  173  A    between atoms: _425  and  _428
REMARK  174  A    between atoms: _428  and  _429
REMARK  175  A    between atoms: _432  and  _434
REMARK  176  A    between atoms: _434  and  _435
REMARK  177  A    between atoms: _434  and  _437
REMARK  178  A    between atoms: _437  and  _438
REMARK  179  A    between atoms: _442  and  _443
REMARK  180  A    between atoms: _448  and  _450
REMARK  181  A    between atoms: _450  and  _451
REMARK  182  A    between atoms: _454  and  _456
REMARK  183  A    between atoms: _456  and  _457
REMARK  184  A    between atoms: _456  and  _459
REMARK  185  A    between atoms: _459  and  _460
REMARK  186  A    between atoms: _465  and  _467
REMARK  187  A    between atoms: _467  and  _468
REMARK  188  A    between atoms: _467  and  _470
REMARK  189  A    between atoms: _473  and  _475
REMARK  190  A    between atoms: _475  and  _476
REMARK  191  A    between atoms: _475  and  _478
REMARK  192  A    between atoms: _478  and  _479
REMARK  193  A    between atoms: _482  and  _484
REMARK  194  A    between atoms: _484  and  _485
REMARK  195  A    between atoms: _487  and  _489
REMARK  196  A    between atoms: _489  and  _490
REMARK  197  A    between atoms: _489  and  _492
REMARK  198  A    between atoms: _492  and  _493
REMARK  199  A    between atoms: _493  and  _494
REMARK  200  A    between atoms: _494  and  _495
REMARK  201  A    between atoms: _504  and  _506
REMARK  202  A    between atoms: _506  and  _507
REMARK  203  A    between atoms: _506  and  _509
REMARK  204  A    between atoms: _509  and  _510
REMARK                            x       y       z     vdW  Elec       q    Type
REMARK                         _______ _______ _______ _____ _____    ______ ____
ROOT
ATOM      1  O   HOH     1      -4.036  -0.606 -31.764  0.00  0.00    +0.000 OA
ENDROOT
TORSDOF 0
REMARK  Name = ../refined-set-2016/3t3c/3t3c_pocket.pdb
REMARK  204 active torsions:
REMARK  status: ('A' for Active; 'I' for Inactive)
REMARK    1  A    between atoms: _1  and  _3
REMARK    2  A    between atoms: _3  and  _4
REMARK    3  A    between atoms: _3  and  _6
REMARK    4  A    between atoms: _6  and  _7
REMARK    5  A    between atoms: _7  and  _8
REMARK    6  A    between atoms: _8  and  _9
REMARK    7  A    between atoms: _18  and  _20
REMARK    8  A    between atoms: _20  and  _21
REMARK    9  A    between atoms: _20  and  _23
REMARK   10  A    between atoms: _23  and  _24
REMARK   11  A    between atoms: _27  and  _29
REMARK   12  A    between atoms: _29  and  _30
REMARK   13  A    between atoms: _29  and  _32
REMARK   14  A    between atoms: _32  and  _33
REMARK   15  A    between atoms: _36  and  _38
REMARK   16  A    between atoms: _38  and  _39
REMARK   17  A    between atoms: _38  and  _41
REMARK   18  A    between atoms: _41  and  _42
REMARK   19  A    between atoms: _45  and  _47
REMARK   20  A    between atoms: _47  and  _48
REMARK   21  A    between atoms: _47  and  _50
REMARK   22  A    between atoms: _50  and  _51
REMARK   23  A    between atoms: _54  and  _56
REMARK   24  A    between atoms: _56  and  _57
REMARK   25  A    between atoms: _59  and  _61
REMARK   26  A    between atoms: _61  and  _62
REMARK   27  A    between atoms: _65  and  _67
REMARK   28  A    between atoms: _67  and  _68
REMARK   29  A    between atoms: _67  and  _70
REMARK   30  A    between atoms: _70  and  _71
REMARK   31  A    between atoms: _74  and  _76
REMARK   32  A    between atoms: _76  and  _77
REMARK   33  A    between atoms: _76  and  _79
REMARK   34  A    between atoms: _79  and  _80
REMARK   35  A    between atoms: _83  and  _85
REMARK   36  A    between atoms: _85  and  _86
REMARK   37  A    between atoms: _85  and  _88
REMARK   38  A    between atoms: _88  and  _89
REMARK   39  A    between atoms: _92  and  _94
REMARK   40  A    between atoms: _94  and  _95
REMARK   41  A    between atoms: _94  and  _97
REMARK   42  A    between atoms: _100  and  _102
REMARK   43  A    between atoms: _102  and  _103
REMARK   44  A    between atoms: _102  and  _105
REMARK   45  A    between atoms: _105  and  _106
REMARK   46  A    between atoms: _109  and  _111
REMARK   47  A    between atoms: _111  and  _112
REMARK   48  A    between atoms: _115  and  _117
REMARK   49  A    between atoms: _117  and  _118
REMARK   50  A    between atoms: _120  and  _122
REMARK   51  A    between atoms: _122  and  _123
REMARK   52  A    between atoms: _122  and  _125
REMARK   53  A    between atoms: _125  and  _126
REMARK   54  A    between atoms: _129  and  _131
REMARK   55  A    between atoms: _131  and  _132
REMARK   56  A    between atoms: _134  and  _136
REMARK   57  A    between atoms: _136  and  _137
REMARK   58  A    between atoms: _139  and  _141
REMARK   59  A    between atoms: _141  and  _142
REMARK   60  A    between atoms: _141  and  _144
REMARK   61  A    between atoms: _147  and  _149
REMARK   62  A    between atoms: _149  and  _150
REMARK   63  A    between atoms: _149  and  _152
REMARK   64  A    between atoms: _152  and  _153
REMARK   65  A    between atoms: _156  and  _158
REMARK   66  A    between atoms: _158  and  _159
REMARK   67  A    between atoms: _158  and  _161
REMARK   68  A    between atoms: _161  and  _162
REMARK   69  A    between atoms: _166  and  _167
REMARK   70  A    between atoms: _172  and  _174
REMARK   71  A    between atoms: _174  and  _175
REMARK   72  A    between atoms: _178  and  _180
REMARK   73  A    between atoms: _180  and  _181
REMARK   74  A    between atoms: _180  and  _183
REMARK   75  A    between atoms: _183  and  _184
REMARK   76  A    between atoms: _189  and  _191
REMARK   77  A    between atoms: _191  and  _192
REMARK   78  A    between atoms: _191  and  _194
REMARK   79  A    between atoms: _197  and  _199
REMARK   80  A    between atoms: _199  and  _200
REMARK   81  A    between atoms: _199  and  _202
REMARK   82  A    between atoms: _202  and  _203
REMARK   83  A    between atoms: _206  and  _208
REMARK   84  A    between atoms: _208  and  _209
REMARK   85  A    between atoms: _211  and  _213
REMARK   86  A    between atoms: _213  and  _214
REMARK   87  A    between atoms: _213  and  _216
REMARK   88  A    between atoms: _216  and  _217
REMARK   89  A    between atoms: _217  and  _218
REMARK   90  A    between atoms: _218  and  _219
REMARK   91  A    between atoms: _228  and  _230
REMARK   92  A    between atoms: _230  and  _231
REMARK   93  A    between atoms: _230  and  _233
REMARK   94  A    between atoms: _233  and  _234
REMARK   95  A    between atoms: _239  and  _241
REMARK   96  A    between atoms: _241  and  _242
REMARK   97  A    between atoms: _241  and  _244
REMARK   98  A    between atoms: _244  and  _245
REMARK   99  A    between atoms: _245  and  _246
REMARK  100  A    between atoms: _246  and  _247
REMARK  101  A    between atoms: _256  and  _258
REMARK  102  A    between atoms: _258  and  _259
REMARK  103  A    between atoms: _258  and  _261
REMARK  104  A    between atoms: _261  and  _262
REMARK  105  A    between atoms: _265  and  _267
REMARK  106  A    between atoms: _267  and  _268
REMARK  107  A    between atoms: _267  and  _270
REMARK  108  A    between atoms: _270  and  _271
REMARK  109  A    between atoms: _274  and  _276
REMARK  110  A    between atoms: _276  and  _277
REMARK  111  A    between atoms: _276  and  _279
REMARK  112  A    between atoms: _279  and  _280
REMARK  113  A    between atoms: _283  and  _285
REMARK  114  A    between atoms: _285  and  _286
REMARK  115  A    between atoms: _285  and  _288
REMARK  116  A    between atoms: _288  and  _289
REMARK  117  A    between atoms: _292  and  _294
REMARK  118  A    between atoms: _294  and  _295
REMARK  119  A    between atoms: _297  and  _299
REMARK  120  A    between atoms: _299  and  _300
REMARK  121  A    between atoms: _303  and  _305
REMARK  122  A    between atoms: _305  and  _306
REMARK  123  A    between atoms: _305  and  _308
REMARK  124  A    between atoms: _308  and  _309
REMARK  125  A    between atoms: _312  and  _314
REMARK  126  A    between atoms: _314  and  _315
REMARK  127  A    between atoms: _314  and  _317
REMARK  128  A    between atoms: _317  and  _318
REMARK  129  A    between atoms: _321  and  _323
REMARK  130  A    between atoms: _323  and  _324
REMARK  131  A    between atoms: _323  and  _326
REMARK  132  A    between atoms: _326  and  _327
REMARK  133  A    between atoms: _330  and  _332
REMARK  134  A    between atoms: _332  and  _333
REMARK  135  A    between atoms: _332  and  _335
REMARK  136  A    between atoms: _338  and  _340
REMARK  137  A    between atoms: _340  and  _341
REMARK  138  A    between atoms: _340  and  _343
REMARK  139  A    between atoms: _343  and  _344
REMARK  140  A    between atoms: _347  and  _349
REMARK  141  A    between atoms: _349  and  _350
REMARK  142  A    between atoms: _349  and  _352
REMARK  143  A    between atoms: _352  and  _353
REMARK  144  A    between atoms: _353  and  _354
REMARK  145  A    between atoms: _356  and  _358
REMARK  146  A    between atoms: _358  and  _359
REMARK  147  A    between atoms: _358  and  _361
REMARK  148  A    between atoms: _361  and  _362
REMARK  149  A    between atoms: _365  and  _367
REMARK  150  A    between atoms: _367  and  _368
REMARK  151  A    between atoms: _371  and  _373
REMARK  152  A    between atoms: _373  and  _374
REMARK  153  A    between atoms: _376  and  _378
REMARK  154  A    between atoms: _378  and  _379
REMARK  155  A    between atoms: _378  and  _381
REMARK  156  A    between atoms: _381  and  _382
REMARK  157  A    between atoms: _385  and  _387
REMARK  158  A    between atoms: _387  and  _388
REMARK  159  A    between atoms: _390  and  _392
REMARK  160  A    between atoms: _392  and  _393
REMARK  161  A    between atoms: _395  and  _397
REMARK  162  A    between atoms: _397  and  _398
REMARK  163  A    between atoms: _397  and  _400
REMARK  164  A    between atoms: _400  and  _401
REMARK  165  A    between atoms: _407  and  _409
REMARK  166  A    between atoms: _409  and  _410
REMARK  167  A    between atoms: _409  and  _412
REMARK  168  A    between atoms: _415  and  _417
REMARK  169  A    between atoms: _417  and  _418
REMARK  170  A    between atoms: _417  and  _420
REMARK  171  A    between atoms: _423  and  _425
REMARK  172  A    between atoms: _425  and  _426
REMARK  173  A    between atoms: _425  and  _428
REMARK  174  A    between atoms: _428  and  _429
REMARK  175  A    between atoms: _432  and  _434
REMARK  176  A    between atoms: _434  and  _435
REMARK  177  A    between atoms: _434  and  _437
REMARK  178  A    between atoms: _437  and  _438
REMARK  179  A    between atoms: _442  and  _443
REMARK  180  A    between atoms: _448  and  _450
REMARK  181  A    between atoms: _450  and  _451
REMARK  182  A    between atoms: _454  and  _456
REMARK  183  A    between atoms: _456  and  _457
REMARK  184  A    between atoms: _456  and  _459
REMARK  185  A    between atoms: _459  and  _460
REMARK  186  A    between atoms: _465  and  _467
REMARK  187  A    between atoms: _467  and  _468
REMARK  188  A    between atoms: _467  and  _470
REMARK  189  A    between atoms: _473  and  _475
REMARK  190  A    between atoms: _475  and  _476
REMARK  191  A    between atoms: _475  and  _478
REMARK  192  A    between atoms: _478  and  _479
REMARK  193  A    between atoms: _482  and  _484
REMARK  194  A    between atoms: _484  and  _485
REMARK  195  A    between atoms: _487  and  _489
REMARK  196  A    between atoms: _489  and  _490
REMARK  197  A    between atoms: _489  and  _492
REMARK  198  A    between atoms: _492  and  _493
REMARK  199  A    between atoms: _493  and  _494
REMARK  200  A    between atoms: _494  and  _495
REMARK  201  A    between atoms: _504  and  _506
REMARK  202  A    between atoms: _506  and  _507
REMARK  203  A    between atoms: _506  and  _509
REMARK  204  A    between atoms: _509  and  _510
REMARK                            x       y       z     vdW  Elec       q    Type
REMARK                         _______ _______ _______ _____ _____    ______ ____
ROOT
ATOM      1  O   HOH     1      -7.027   4.327 -21.076  0.00  0.00    +0.000 OA
ENDROOT
TORSDOF 0
REMARK  Name = ../refined-set-2016/3t3c/3t3c_pocket.pdb
REMARK  204 active torsions:
REMARK  status: ('A' for Active; 'I' for Inactive)
REMARK    1  A    between atoms: _1  and  _3
REMARK    2  A    between atoms: _3  and  _4
REMARK    3  A    between atoms: _3  and  _6
REMARK    4  A    between atoms: _6  and  _7
REMARK    5  A    between atoms: _7  and  _8
REMARK    6  A    between atoms: _8  and  _9
REMARK    7  A    between atoms: _18  and  _20
REMARK    8  A    between atoms: _20  and  _21
REMARK    9  A    between atoms: _20  and  _23
REMARK   10  A    between atoms: _23  and  _24
REMARK   11  A    between atoms: _27  and  _29
REMARK   12  A    between atoms: _29  and  _30
REMARK   13  A    between atoms: _29  and  _32
REMARK   14  A    between atoms: _32  and  _33
REMARK   15  A    between atoms: _36  and  _38
REMARK   16  A    between atoms: _38  and  _39
REMARK   17  A    between atoms: _38  and  _41
REMARK   18  A    between atoms: _41  and  _42
REMARK   19  A    between atoms: _45  and  _47
REMARK   20  A    between atoms: _47  and  _48
REMARK   21  A    between atoms: _47  and  _50
REMARK   22  A    between atoms: _50  and  _51
REMARK   23  A    between atoms: _54  and  _56
REMARK   24  A    between atoms: _56  and  _57
REMARK   25  A    between atoms: _59  and  _61
REMARK   26  A    between atoms: _61  and  _62
REMARK   27  A    between atoms: _65  and  _67
REMARK   28  A    between atoms: _67  and  _68
REMARK   29  A    between atoms: _67  and  _70
REMARK   30  A    between atoms: _70  and  _71
REMARK   31  A    between atoms: _74  and  _76
REMARK   32  A    between atoms: _76  and  _77
REMARK   33  A    between atoms: _76  and  _79
REMARK   34  A    between atoms: _79  and  _80
REMARK   35  A    between atoms: _83  and  _85
REMARK   36  A    between atoms: _85  and  _86
REMARK   37  A    between atoms: _85  and  _88
REMARK   38  A    between atoms: _88  and  _89
REMARK   39  A    between atoms: _92  and  _94
REMARK   40  A    between atoms: _94  and  _95
REMARK   41  A    between atoms: _94  and  _97
REMARK   42  A    between atoms: _100  and  _102
REMARK   43  A    between atoms: _102  and  _103
REMARK   44  A    between atoms: _102  and  _105
REMARK   45  A    between atoms: _105  and  _106
REMARK   46  A    between atoms: _109  and  _111
REMARK   47  A    between atoms: _111  and  _112
REMARK   48  A    between atoms: _115  and  _117
REMARK   49  A    between atoms: _117  and  _118
REMARK   50  A    between atoms: _120  and  _122
REMARK   51  A    between atoms: _122  and  _123
REMARK   52  A    between atoms: _122  and  _125
REMARK   53  A    between atoms: _125  and  _126
REMARK   54  A    between atoms: _129  and  _131
REMARK   55  A    between atoms: _131  and  _132
REMARK   56  A    between atoms: _134  and  _136
REMARK   57  A    between atoms: _136  and  _137
REMARK   58  A    between atoms: _139  and  _141
REMARK   59  A    between atoms: _141  and  _142
REMARK   60  A    between atoms: _141  and  _144
REMARK   61  A    between atoms: _147  and  _149
REMARK   62  A    between atoms: _149  and  _150
REMARK   63  A    between atoms: _149  and  _152
REMARK   64  A    between atoms: _152  and  _153
REMARK   65  A    between atoms: _156  and  _158
REMARK   66  A    between atoms: _158  and  _159
REMARK   67  A    between atoms: _158  and  _161
REMARK   68  A    between atoms: _161  and  _162
REMARK   69  A    between atoms: _166  and  _167
REMARK   70  A    between atoms: _172  and  _174
REMARK   71  A    between atoms: _174  and  _175
REMARK   72  A    between atoms: _178  and  _180
REMARK   73  A    between atoms: _180  and  _181
REMARK   74  A    between atoms: _180  and  _183
REMARK   75  A    between atoms: _183  and  _184
REMARK   76  A    between atoms: _189  and  _191
REMARK   77  A    between atoms: _191  and  _192
REMARK   78  A    between atoms: _191  and  _194
REMARK   79  A    between atoms: _197  and  _199
REMARK   80  A    between atoms: _199  and  _200
REMARK   81  A    between atoms: _199  and  _202
REMARK   82  A    between atoms: _202  and  _203
REMARK   83  A    between atoms: _206  and  _208
REMARK   84  A    between atoms: _208  and  _209
REMARK   85  A    between atoms: _211  and  _213
REMARK   86  A    between atoms: _213  and  _214
REMARK   87  A    between atoms: _213  and  _216
REMARK   88  A    between atoms: _216  and  _217
REMARK   89  A    between atoms: _217  and  _218
REMARK   90  A    between atoms: _218  and  _219
REMARK   91  A    between atoms: _228  and  _230
REMARK   92  A    between atoms: _230  and  _231
REMARK   93  A    between atoms: _230  and  _233
REMARK   94  A    between atoms: _233  and  _234
REMARK   95  A    between atoms: _239  and  _241
REMARK   96  A    between atoms: _241  and  _242
REMARK   97  A    between atoms: _241  and  _244
REMARK   98  A    between atoms: _244  and  _245
REMARK   99  A    between atoms: _245  and  _246
REMARK  100  A    between atoms: _246  and  _247
REMARK  101  A    between atoms: _256  and  _258
REMARK  102  A    between atoms: _258  and  _259
REMARK  103  A    between atoms: _258  and  _261
REMARK  104  A    between atoms: _261  and  _262
REMARK  105  A    between atoms: _265  and  _267
REMARK  106  A    between atoms: _267  and  _268
REMARK  107  A    between atoms: _267  and  _270
REMARK  108  A    between atoms: _270  and  _271
REMARK  109  A    between atoms: _274  and  _276
REMARK  110  A    between atoms: _276  and  _277
REMARK  111  A    between atoms: _276  and  _279
REMARK  112  A    between atoms: _279  and  _280
REMARK  113  A    between atoms: _283  and  _285
REMARK  114  A    between atoms: _285  and  _286
REMARK  115  A    between atoms: _285  and  _288
REMARK  116  A    between atoms: _288  and  _289
REMARK  117  A    between atoms: _292  and  _294
REMARK  118  A    between atoms: _294  and  _295
REMARK  119  A    between atoms: _297  and  _299
REMARK  120  A    between atoms: _299  and  _300
REMARK  121  A    between atoms: _303  and  _305
REMARK  122  A    between atoms: _305  and  _306
REMARK  123  A    between atoms: _305  and  _308
REMARK  124  A    between atoms: _308  and  _309
REMARK  125  A    between atoms: _312  and  _314
REMARK  126  A    between atoms: _314  and  _315
REMARK  127  A    between atoms: _314  and  _317
REMARK  128  A    between atoms: _317  and  _318
REMARK  129  A    between atoms: _321  and  _323
REMARK  130  A    between atoms: _323  and  _324
REMARK  131  A    between atoms: _323  and  _326
REMARK  132  A    between atoms: _326  and  _327
REMARK  133  A    between atoms: _330  and  _332
REMARK  134  A    between atoms: _332  and  _333
REMARK  135  A    between atoms: _332  and  _335
REMARK  136  A    between atoms: _338  and  _340
REMARK  137  A    between atoms: _340  and  _341
REMARK  138  A    between atoms: _340  and  _343
REMARK  139  A    between atoms: _343  and  _344
REMARK  140  A    between atoms: _347  and  _349
REMARK  141  A    between atoms: _349  and  _350
REMARK  142  A    between atoms: _349  and  _352
REMARK  143  A    between atoms: _352  and  _353
REMARK  144  A    between atoms: _353  and  _354
REMARK  145  A    between atoms: _356  and  _358
REMARK  146  A    between atoms: _358  and  _359
REMARK  147  A    between atoms: _358  and  _361
REMARK  148  A    between atoms: _361  and  _362
REMARK  149  A    between atoms: _365  and  _367
REMARK  150  A    between atoms: _367  and  _368
REMARK  151  A    between atoms: _371  and  _373
REMARK  152  A    between atoms: _373  and  _374
REMARK  153  A    between atoms: _376  and  _378
REMARK  154  A    between atoms: _378  and  _379
REMARK  155  A    between atoms: _378  and  _381
REMARK  156  A    between atoms: _381  and  _382
REMARK  157  A    between atoms: _385  and  _387
REMARK  158  A    between atoms: _387  and  _388
REMARK  159  A    between atoms: _390  and  _392
REMARK  160  A    between atoms: _392  and  _393
REMARK  161  A    between atoms: _395  and  _397
REMARK  162  A    between atoms: _397  and  _398
REMARK  163  A    between atoms: _397  and  _400
REMARK  164  A    between atoms: _400  and  _401
REMARK  165  A    between atoms: _407  and  _409
REMARK  166  A    between atoms: _409  and  _410
REMARK  167  A    between atoms: _409  and  _412
REMARK  168  A    between atoms: _415  and  _417
REMARK  169  A    between atoms: _417  and  _418
REMARK  170  A    between atoms: _417  and  _420
REMARK  171  A    between atoms: _423  and  _425
REMARK  172  A    between atoms: _425  and  _426
REMARK  173  A    between atoms: _425  and  _428
REMARK  174  A    between atoms: _428  and  _429
REMARK  175  A    between atoms: _432  and  _434
REMARK  176  A    between atoms: _434  and  _435
REMARK  177  A    between atoms: _434  and  _437
REMARK  178  A    between atoms: _437  and  _438
REMARK  179  A    between atoms: _442  and  _443
REMARK  180  A    between atoms: _448  and  _450
REMARK  181  A    between atoms: _450  and  _451
REMARK  182  A    between atoms: _454  and  _456
REMARK  183  A    between atoms: _456  and  _457
REMARK  184  A    between atoms: _456  and  _459
REMARK  185  A    between atoms: _459  and  _460
REMARK  186  A    between atoms: _465  and  _467
REMARK  187  A    between atoms: _467  and  _468
REMARK  188  A    between atoms: _467  and  _470
REMARK  189  A    between atoms: _473  and  _475
REMARK  190  A    between atoms: _475  and  _476
REMARK  191  A    between atoms: _475  and  _478
REMARK  192  A    between atoms: _478  and  _479
REMARK  193  A    between atoms: _482  and  _484
REMARK  194  A    between atoms: _484  and  _485
REMARK  195  A    between atoms: _487  and  _489
REMARK  196  A    between atoms: _489  and  _490
REMARK  197  A    between atoms: _489  and  _492
REMARK  198  A    between atoms: _492  and  _493
REMARK  199  A    between atoms: _493  and  _494
REMARK  200  A    between atoms: _494  and  _495
REMARK  201  A    between atoms: _504  and  _506
REMARK  202  A    between atoms: _506  and  _507
REMARK  203  A    between atoms: _506  and  _509
REMARK  204  A    between atoms: _509  and  _510
REMARK                            x       y       z     vdW  Elec       q    Type
REMARK                         _______ _______ _______ _____ _____    ______ ____
ROOT
ATOM      1  O   HOH     1      -5.146   3.265 -22.995  0.00  0.00    +0.000 OA
ENDROOT
TORSDOF 0
REMARK  Name = ../refined-set-2016/3t3c/3t3c_pocket.pdb
REMARK  204 active torsions:
REMARK  status: ('A' for Active; 'I' for Inactive)
REMARK    1  A    between atoms: _1  and  _3
REMARK    2  A    between atoms: _3  and  _4
REMARK    3  A    between atoms: _3  and  _6
REMARK    4  A    between atoms: _6  and  _7
REMARK    5  A    between atoms: _7  and  _8
REMARK    6  A    between atoms: _8  and  _9
REMARK    7  A    between atoms: _18  and  _20
REMARK    8  A    between atoms: _20  and  _21
REMARK    9  A    between atoms: _20  and  _23
REMARK   10  A    between atoms: _23  and  _24
REMARK   11  A    between atoms: _27  and  _29
REMARK   12  A    between atoms: _29  and  _30
REMARK   13  A    between atoms: _29  and  _32
REMARK   14  A    between atoms: _32  and  _33
REMARK   15  A    between atoms: _36  and  _38
REMARK   16  A    between atoms: _38  and  _39
REMARK   17  A    between atoms: _38  and  _41
REMARK   18  A    between atoms: _41  and  _42
REMARK   19  A    between atoms: _45  and  _47
REMARK   20  A    between atoms: _47  and  _48
REMARK   21  A    between atoms: _47  and  _50
REMARK   22  A    between atoms: _50  and  _51
REMARK   23  A    between atoms: _54  and  _56
REMARK   24  A    between atoms: _56  and  _57
REMARK   25  A    between atoms: _59  and  _61
REMARK   26  A    between atoms: _61  and  _62
REMARK   27  A    between atoms: _65  and  _67
REMARK   28  A    between atoms: _67  and  _68
REMARK   29  A    between atoms: _67  and  _70
REMARK   30  A    between atoms: _70  and  _71
REMARK   31  A    between atoms: _74  and  _76
REMARK   32  A    between atoms: _76  and  _77
REMARK   33  A    between atoms: _76  and  _79
REMARK   34  A    between atoms: _79  and  _80
REMARK   35  A    between atoms: _83  and  _85
REMARK   36  A    between atoms: _85  and  _86
REMARK   37  A    between atoms: _85  and  _88
REMARK   38  A    between atoms: _88  and  _89
REMARK   39  A    between atoms: _92  and  _94
REMARK   40  A    between atoms: _94  and  _95
REMARK   41  A    between atoms: _94  and  _97
REMARK   42  A    between atoms: _100  and  _102
REMARK   43  A    between atoms: _102  and  _103
REMARK   44  A    between atoms: _102  and  _105
REMARK   45  A    between atoms: _105  and  _106
REMARK   46  A    between atoms: _109  and  _111
REMARK   47  A    between atoms: _111  and  _112
REMARK   48  A    between atoms: _115  and  _117
REMARK   49  A    between atoms: _117  and  _118
REMARK   50  A    between atoms: _120  and  _122
REMARK   51  A    between atoms: _122  and  _123
REMARK   52  A    between atoms: _122  and  _125
REMARK   53  A    between atoms: _125  and  _126
REMARK   54  A    between atoms: _129  and  _131
REMARK   55  A    between atoms: _131  and  _132
REMARK   56  A    between atoms: _134  and  _136
REMARK   57  A    between atoms: _136  and  _137
REMARK   58  A    between atoms: _139  and  _141
REMARK   59  A    between atoms: _141  and  _142
REMARK   60  A    between atoms: _141  and  _144
REMARK   61  A    between atoms: _147  and  _149
REMARK   62  A    between atoms: _149  and  _150
REMARK   63  A    between atoms: _149  and  _152
REMARK   64  A    between atoms: _152  and  _153
REMARK   65  A    between atoms: _156  and  _158
REMARK   66  A    between atoms: _158  and  _159
REMARK   67  A    between atoms: _158  and  _161
REMARK   68  A    between atoms: _161  and  _162
REMARK   69  A    between atoms: _166  and  _167
REMARK   70  A    between atoms: _172  and  _174
REMARK   71  A    between atoms: _174  and  _175
REMARK   72  A    between atoms: _178  and  _180
REMARK   73  A    between atoms: _180  and  _181
REMARK   74  A    between atoms: _180  and  _183
REMARK   75  A    between atoms: _183  and  _184
REMARK   76  A    between atoms: _189  and  _191
REMARK   77  A    between atoms: _191  and  _192
REMARK   78  A    between atoms: _191  and  _194
REMARK   79  A    between atoms: _197  and  _199
REMARK   80  A    between atoms: _199  and  _200
REMARK   81  A    between atoms: _199  and  _202
REMARK   82  A    between atoms: _202  and  _203
REMARK   83  A    between atoms: _206  and  _208
REMARK   84  A    between atoms: _208  and  _209
REMARK   85  A    between atoms: _211  and  _213
REMARK   86  A    between atoms: _213  and  _214
REMARK   87  A    between atoms: _213  and  _216
REMARK   88  A    between atoms: _216  and  _217
REMARK   89  A    between atoms: _217  and  _218
REMARK   90  A    between atoms: _218  and  _219
REMARK   91  A    between atoms: _228  and  _230
REMARK   92  A    between atoms: _230  and  _231
REMARK   93  A    between atoms: _230  and  _233
REMARK   94  A    between atoms: _233  and  _234
REMARK   95  A    between atoms: _239  and  _241
REMARK   96  A    between atoms: _241  and  _242
REMARK   97  A    between atoms: _241  and  _244
REMARK   98  A    between atoms: _244  and  _245
REMARK   99  A    between atoms: _245  and  _246
REMARK  100  A    between atoms: _246  and  _247
REMARK  101  A    between atoms: _256  and  _258
REMARK  102  A    between atoms: _258  and  _259
REMARK  103  A    between atoms: _258  and  _261
REMARK  104  A    between atoms: _261  and  _262
REMARK  105  A    between atoms: _265  and  _267
REMARK  106  A    between atoms: _267  and  _268
REMARK  107  A    between atoms: _267  and  _270
REMARK  108  A    between atoms: _270  and  _271
REMARK  109  A    between atoms: _274  and  _276
REMARK  110  A    between atoms: _276  and  _277
REMARK  111  A    between atoms: _276  and  _279
REMARK  112  A    between atoms: _279  and  _280
REMARK  113  A    between atoms: _283  and  _285
REMARK  114  A    between atoms: _285  and  _286
REMARK  115  A    between atoms: _285  and  _288
REMARK  116  A    between atoms: _288  and  _289
REMARK  117  A    between atoms: _292  and  _294
REMARK  118  A    between atoms: _294  and  _295
REMARK  119  A    between atoms: _297  and  _299
REMARK  120  A    between atoms: _299  and  _300
REMARK  121  A    between atoms: _303  and  _305
REMARK  122  A    between atoms: _305  and  _306
REMARK  123  A    between atoms: _305  and  _308
REMARK  124  A    between atoms: _308  and  _309
REMARK  125  A    between atoms: _312  and  _314
REMARK  126  A    between atoms: _314  and  _315
REMARK  127  A    between atoms: _314  and  _317
REMARK  128  A    between atoms: _317  and  _318
REMARK  129  A    between atoms: _321  and  _323
REMARK  130  A    between atoms: _323  and  _324
REMARK  131  A    between atoms: _323  and  _326
REMARK  132  A    between atoms: _326  and  _327
REMARK  133  A    between atoms: _330  and  _332
REMARK  134  A    between atoms: _332  and  _333
REMARK  135  A    between atoms: _332  and  _335
REMARK  136  A    between atoms: _338  and  _340
REMARK  137  A    between atoms: _340  and  _341
REMARK  138  A    between atoms: _340  and  _343
REMARK  139  A    between atoms: _343  and  _344
REMARK  140  A    between atoms: _347  and  _349
REMARK  141  A    between atoms: _349  and  _350
REMARK  142  A    between atoms: _349  and  _352
REMARK  143  A    between atoms: _352  and  _353
REMARK  144  A    between atoms: _353  and  _354
REMARK  145  A    between atoms: _356  and  _358
REMARK  146  A    between atoms: _358  and  _359
REMARK  147  A    between atoms: _358  and  _361
REMARK  148  A    between atoms: _361  and  _362
REMARK  149  A    between atoms: _365  and  _367
REMARK  150  A    between atoms: _367  and  _368
REMARK  151  A    between atoms: _371  and  _373
REMARK  152  A    between atoms: _373  and  _374
REMARK  153  A    between atoms: _376  and  _378
REMARK  154  A    between atoms: _378  and  _379
REMARK  155  A    between atoms: _378  and  _381
REMARK  156  A    between atoms: _381  and  _382
REMARK  157  A    between atoms: _385  and  _387
REMARK  158  A    between atoms: _387  and  _388
REMARK  159  A    between atoms: _390  and  _392
REMARK  160  A    between atoms: _392  and  _393
REMARK  161  A    between atoms: _395  and  _397
REMARK  162  A    between atoms: _397  and  _398
REMARK  163  A    between atoms: _397  and  _400
REMARK  164  A    between atoms: _400  and  _401
REMARK  165  A    between atoms: _407  and  _409
REMARK  166  A    between atoms: _409  and  _410
REMARK  167  A    between atoms: _409  and  _412
REMARK  168  A    between atoms: _415  and  _417
REMARK  169  A    between atoms: _417  and  _418
REMARK  170  A    between atoms: _417  and  _420
REMARK  171  A    between atoms: _423  and  _425
REMARK  172  A    between atoms: _425  and  _426
REMARK  173  A    between atoms: _425  and  _428
REMARK  174  A    between atoms: _428  and  _429
REMARK  175  A    between atoms: _432  and  _434
REMARK  176  A    between atoms: _434  and  _435
REMARK  177  A    between atoms: _434  and  _437
REMARK  178  A    between atoms: _437  and  _438
REMARK  179  A    between atoms: _442  and  _443
REMARK  180  A    between atoms: _448  and  _450
REMARK  181  A    between atoms: _450  and  _451
REMARK  182  A    between atoms: _454  and  _456
REMARK  183  A    between atoms: _456  and  _457
REMARK  184  A    between atoms: _456  and  _459
REMARK  185  A    between atoms: _459  and  _460
REMARK  186  A    between atoms: _465  and  _467
REMARK  187  A    between atoms: _467  and  _468
REMARK  188  A    between atoms: _467  and  _470
REMARK  189  A    between atoms: _473  and  _475
REMARK  190  A    between atoms: _475  and  _476
REMARK  191  A    between atoms: _475  and  _478
REMARK  192  A    between atoms: _478  and  _479
REMARK  193  A    between atoms: _482  and  _484
REMARK  194  A    between atoms: _484  and  _485
REMARK  195  A    between atoms: _487  and  _489
REMARK  196  A    between atoms: _489  and  _490
REMARK  197  A    between atoms: _489  and  _492
REMARK  198  A    between atoms: _492  and  _493
REMARK  199  A    between atoms: _493  and  _494
REMARK  200  A    between atoms: _494  and  _495
REMARK  201  A    between atoms: _504  and  _506
REMARK  202  A    between atoms: _506  and  _507
REMARK  203  A    between atoms: _506  and  _509
REMARK  204  A    between atoms: _509  and  _510
REMARK                            x       y       z     vdW  Elec       q    Type
REMARK                         _______ _______ _______ _____ _____    ______ ____
ROOT
ATOM      1  O   HOH     1      -3.782  -0.199 -29.349  0.00  0.00    +0.000 OA
ENDROOT
TORSDOF 0
REMARK  Name = ../refined-set-2016/3t3c/3t3c_pocket.pdb
REMARK  204 active torsions:
REMARK  status: ('A' for Active; 'I' for Inactive)
REMARK    1  A    between atoms: _1  and  _3
REMARK    2  A    between atoms: _3  and  _4
REMARK    3  A    between atoms: _3  and  _6
REMARK    4  A    between atoms: _6  and  _7
REMARK    5  A    between atoms: _7  and  _8
REMARK    6  A    between atoms: _8  and  _9
REMARK    7  A    between atoms: _18  and  _20
REMARK    8  A    between atoms: _20  and  _21
REMARK    9  A    between atoms: _20  and  _23
REMARK   10  A    between atoms: _23  and  _24
REMARK   11  A    between atoms: _27  and  _29
REMARK   12  A    between atoms: _29  and  _30
REMARK   13  A    between atoms: _29  and  _32
REMARK   14  A    between atoms: _32  and  _33
REMARK   15  A    between atoms: _36  and  _38
REMARK   16  A    between atoms: _38  and  _39
REMARK   17  A    between atoms: _38  and  _41
REMARK   18  A    between atoms: _41  and  _42
REMARK   19  A    between atoms: _45  and  _47
REMARK   20  A    between atoms: _47  and  _48
REMARK   21  A    between atoms: _47  and  _50
REMARK   22  A    between atoms: _50  and  _51
REMARK   23  A    between atoms: _54  and  _56
REMARK   24  A    between atoms: _56  and  _57
REMARK   25  A    between atoms: _59  and  _61
REMARK   26  A    between atoms: _61  and  _62
REMARK   27  A    between atoms: _65  and  _67
REMARK   28  A    between atoms: _67  and  _68
REMARK   29  A    between atoms: _67  and  _70
REMARK   30  A    between atoms: _70  and  _71
REMARK   31  A    between atoms: _74  and  _76
REMARK   32  A    between atoms: _76  and  _77
REMARK   33  A    between atoms: _76  and  _79
REMARK   34  A    between atoms: _79  and  _80
REMARK   35  A    between atoms: _83  and  _85
REMARK   36  A    between atoms: _85  and  _86
REMARK   37  A    between atoms: _85  and  _88
REMARK   38  A    between atoms: _88  and  _89
REMARK   39  A    between atoms: _92  and  _94
REMARK   40  A    between atoms: _94  and  _95
REMARK   41  A    between atoms: _94  and  _97
REMARK   42  A    between atoms: _100  and  _102
REMARK   43  A    between atoms: _102  and  _103
REMARK   44  A    between atoms: _102  and  _105
REMARK   45  A    between atoms: _105  and  _106
REMARK   46  A    between atoms: _109  and  _111
REMARK   47  A    between atoms: _111  and  _112
REMARK   48  A    between atoms: _115  and  _117
REMARK   49  A    between atoms: _117  and  _118
REMARK   50  A    between atoms: _120  and  _122
REMARK   51  A    between atoms: _122  and  _123
REMARK   52  A    between atoms: _122  and  _125
REMARK   53  A    between atoms: _125  and  _126
REMARK   54  A    between atoms: _129  and  _131
REMARK   55  A    between atoms: _131  and  _132
REMARK   56  A    between atoms: _134  and  _136
REMARK   57  A    between atoms: _136  and  _137
REMARK   58  A    between atoms: _139  and  _141
REMARK   59  A    between atoms: _141  and  _142
REMARK   60  A    between atoms: _141  and  _144
REMARK   61  A    between atoms: _147  and  _149
REMARK   62  A    between atoms: _149  and  _150
REMARK   63  A    between atoms: _149  and  _152
REMARK   64  A    between atoms: _152  and  _153
REMARK   65  A    between atoms: _156  and  _158
REMARK   66  A    between atoms: _158  and  _159
REMARK   67  A    between atoms: _158  and  _161
REMARK   68  A    between atoms: _161  and  _162
REMARK   69  A    between atoms: _166  and  _167
REMARK   70  A    between atoms: _172  and  _174
REMARK   71  A    between atoms: _174  and  _175
REMARK   72  A    between atoms: _178  and  _180
REMARK   73  A    between atoms: _180  and  _181
REMARK   74  A    between atoms: _180  and  _183
REMARK   75  A    between atoms: _183  and  _184
REMARK   76  A    between atoms: _189  and  _191
REMARK   77  A    between atoms: _191  and  _192
REMARK   78  A    between atoms: _191  and  _194
REMARK   79  A    between atoms: _197  and  _199
REMARK   80  A    between atoms: _199  and  _200
REMARK   81  A    between atoms: _199  and  _202
REMARK   82  A    between atoms: _202  and  _203
REMARK   83  A    between atoms: _206  and  _208
REMARK   84  A    between atoms: _208  and  _209
REMARK   85  A    between atoms: _211  and  _213
REMARK   86  A    between atoms: _213  and  _214
REMARK   87  A    between atoms: _213  and  _216
REMARK   88  A    between atoms: _216  and  _217
REMARK   89  A    between atoms: _217  and  _218
REMARK   90  A    between atoms: _218  and  _219
REMARK   91  A    between atoms: _228  and  _230
REMARK   92  A    between atoms: _230  and  _231
REMARK   93  A    between atoms: _230  and  _233
REMARK   94  A    between atoms: _233  and  _234
REMARK   95  A    between atoms: _239  and  _241
REMARK   96  A    between atoms: _241  and  _242
REMARK   97  A    between atoms: _241  and  _244
REMARK   98  A    between atoms: _244  and  _245
REMARK   99  A    between atoms: _245  and  _246
REMARK  100  A    between atoms: _246  and  _247
REMARK  101  A    between atoms: _256  and  _258
REMARK  102  A    between atoms: _258  and  _259
REMARK  103  A    between atoms: _258  and  _261
REMARK  104  A    between atoms: _261  and  _262
REMARK  105  A    between atoms: _265  and  _267
REMARK  106  A    between atoms: _267  and  _268
REMARK  107  A    between atoms: _267  and  _270
REMARK  108  A    between atoms: _270  and  _271
REMARK  109  A    between atoms: _274  and  _276
REMARK  110  A    between atoms: _276  and  _277
REMARK  111  A    between atoms: _276  and  _279
REMARK  112  A    between atoms: _279  and  _280
REMARK  113  A    between atoms: _283  and  _285
REMARK  114  A    between atoms: _285  and  _286
REMARK  115  A    between atoms: _285  and  _288
REMARK  116  A    between atoms: _288  and  _289
REMARK  117  A    between atoms: _292  and  _294
REMARK  118  A    between atoms: _294  and  _295
REMARK  119  A    between atoms: _297  and  _299
REMARK  120  A    between atoms: _299  and  _300
REMARK  121  A    between atoms: _303  and  _305
REMARK  122  A    between atoms: _305  and  _306
REMARK  123  A    between atoms: _305  and  _308
REMARK  124  A    between atoms: _308  and  _309
REMARK  125  A    between atoms: _312  and  _314
REMARK  126  A    between atoms: _314  and  _315
REMARK  127  A    between atoms: _314  and  _317
REMARK  128  A    between atoms: _317  and  _318
REMARK  129  A    between atoms: _321  and  _323
REMARK  130  A    between atoms: _323  and  _324
REMARK  131  A    between atoms: _323  and  _326
REMARK  132  A    between atoms: _326  and  _327
REMARK  133  A    between atoms: _330  and  _332
REMARK  134  A    between atoms: _332  and  _333
REMARK  135  A    between atoms: _332  and  _335
REMARK  136  A    between atoms: _338  and  _340
REMARK  137  A    between atoms: _340  and  _341
REMARK  138  A    between atoms: _340  and  _343
REMARK  139  A    between atoms: _343  and  _344
REMARK  140  A    between atoms: _347  and  _349
REMARK  141  A    between atoms: _349  and  _350
REMARK  142  A    between atoms: _349  and  _352
REMARK  143  A    between atoms: _352  and  _353
REMARK  144  A    between atoms: _353  and  _354
REMARK  145  A    between atoms: _356  and  _358
REMARK  146  A    between atoms: _358  and  _359
REMARK  147  A    between atoms: _358  and  _361
REMARK  148  A    between atoms: _361  and  _362
REMARK  149  A    between atoms: _365  and  _367
REMARK  150  A    between atoms: _367  and  _368
REMARK  151  A    between atoms: _371  and  _373
REMARK  152  A    between atoms: _373  and  _374
REMARK  153  A    between atoms: _376  and  _378
REMARK  154  A    between atoms: _378  and  _379
REMARK  155  A    between atoms: _378  and  _381
REMARK  156  A    between atoms: _381  and  _382
REMARK  157  A    between atoms: _385  and  _387
REMARK  158  A    between atoms: _387  and  _388
REMARK  159  A    between atoms: _390  and  _392
REMARK  160  A    between atoms: _392  and  _393
REMARK  161  A    between atoms: _395  and  _397
REMARK  162  A    between atoms: _397  and  _398
REMARK  163  A    between atoms: _397  and  _400
REMARK  164  A    between atoms: _400  and  _401
REMARK  165  A    between atoms: _407  and  _409
REMARK  166  A    between atoms: _409  and  _410
REMARK  167  A    between atoms: _409  and  _412
REMARK  168  A    between atoms: _415  and  _417
REMARK  169  A    between atoms: _417  and  _418
REMARK  170  A    between atoms: _417  and  _420
REMARK  171  A    between atoms: _423  and  _425
REMARK  172  A    between atoms: _425  and  _426
REMARK  173  A    between atoms: _425  and  _428
REMARK  174  A    between atoms: _428  and  _429
REMARK  175  A    between atoms: _432  and  _434
REMARK  176  A    between atoms: _434  and  _435
REMARK  177  A    between atoms: _434  and  _437
REMARK  178  A    between atoms: _437  and  _438
REMARK  179  A    between atoms: _442  and  _443
REMARK  180  A    between atoms: _448  and  _450
REMARK  181  A    between atoms: _450  and  _451
REMARK  182  A    between atoms: _454  and  _456
REMARK  183  A    between atoms: _456  and  _457
REMARK  184  A    between atoms: _456  and  _459
REMARK  185  A    between atoms: _459  and  _460
REMARK  186  A    between atoms: _465  and  _467
REMARK  187  A    between atoms: _467  and  _468
REMARK  188  A    between atoms: _467  and  _470
REMARK  189  A    between atoms: _473  and  _475
REMARK  190  A    between atoms: _475  and  _476
REMARK  191  A    between atoms: _475  and  _478
REMARK  192  A    between atoms: _478  and  _479
REMARK  193  A    between atoms: _482  and  _484
REMARK  194  A    between atoms: _484  and  _485
REMARK  195  A    between atoms: _487  and  _489
REMARK  196  A    between atoms: _489  and  _490
REMARK  197  A    between atoms: _489  and  _492
REMARK  198  A    between atoms: _492  and  _493
REMARK  199  A    between atoms: _493  and  _494
REMARK  200  A    between atoms: _494  and  _495
REMARK  201  A    between atoms: _504  and  _506
REMARK  202  A    between atoms: _506  and  _507
REMARK  203  A    between atoms: _506  and  _509
REMARK  204  A    between atoms: _509  and  _510
REMARK                            x       y       z     vdW  Elec       q    Type
REMARK                         _______ _______ _______ _____ _____    ______ ____
ROOT
ATOM      1  O   HOH     1      -1.900 -10.214 -16.878  0.00  0.00    +0.000 OA
ENDROOT
TORSDOF 0
REMARK  Name = ../refined-set-2016/3t3c/3t3c_pocket.pdb
REMARK  204 active torsions:
REMARK  status: ('A' for Active; 'I' for Inactive)
REMARK    1  A    between atoms: _1  and  _3
REMARK    2  A    between atoms: _3  and  _4
REMARK    3  A    between atoms: _3  and  _6
REMARK    4  A    between atoms: _6  and  _7
REMARK    5  A    between atoms: _7  and  _8
REMARK    6  A    between atoms: _8  and  _9
REMARK    7  A    between atoms: _18  and  _20
REMARK    8  A    between atoms: _20  and  _21
REMARK    9  A    between atoms: _20  and  _23
REMARK   10  A    between atoms: _23  and  _24
REMARK   11  A    between atoms: _27  and  _29
REMARK   12  A    between atoms: _29  and  _30
REMARK   13  A    between atoms: _29  and  _32
REMARK   14  A    between atoms: _32  and  _33
REMARK   15  A    between atoms: _36  and  _38
REMARK   16  A    between atoms: _38  and  _39
REMARK   17  A    between atoms: _38  and  _41
REMARK   18  A    between atoms: _41  and  _42
REMARK   19  A    between atoms: _45  and  _47
REMARK   20  A    between atoms: _47  and  _48
REMARK   21  A    between atoms: _47  and  _50
REMARK   22  A    between atoms: _50  and  _51
REMARK   23  A    between atoms: _54  and  _56
REMARK   24  A    between atoms: _56  and  _57
REMARK   25  A    between atoms: _59  and  _61
REMARK   26  A    between atoms: _61  and  _62
REMARK   27  A    between atoms: _65  and  _67
REMARK   28  A    between atoms: _67  and  _68
REMARK   29  A    between atoms: _67  and  _70
REMARK   30  A    between atoms: _70  and  _71
REMARK   31  A    between atoms: _74  and  _76
REMARK   32  A    between atoms: _76  and  _77
REMARK   33  A    between atoms: _76  and  _79
REMARK   34  A    between atoms: _79  and  _80
REMARK   35  A    between atoms: _83  and  _85
REMARK   36  A    between atoms: _85  and  _86
REMARK   37  A    between atoms: _85  and  _88
REMARK   38  A    between atoms: _88  and  _89
REMARK   39  A    between atoms: _92  and  _94
REMARK   40  A    between atoms: _94  and  _95
REMARK   41  A    between atoms: _94  and  _97
REMARK   42  A    between atoms: _100  and  _102
REMARK   43  A    between atoms: _102  and  _103
REMARK   44  A    between atoms: _102  and  _105
REMARK   45  A    between atoms: _105  and  _106
REMARK   46  A    between atoms: _109  and  _111
REMARK   47  A    between atoms: _111  and  _112
REMARK   48  A    between atoms: _115  and  _117
REMARK   49  A    between atoms: _117  and  _118
REMARK   50  A    between atoms: _120  and  _122
REMARK   51  A    between atoms: _122  and  _123
REMARK   52  A    between atoms: _122  and  _125
REMARK   53  A    between atoms: _125  and  _126
REMARK   54  A    between atoms: _129  and  _131
REMARK   55  A    between atoms: _131  and  _132
REMARK   56  A    between atoms: _134  and  _136
REMARK   57  A    between atoms: _136  and  _137
REMARK   58  A    between atoms: _139  and  _141
REMARK   59  A    between atoms: _141  and  _142
REMARK   60  A    between atoms: _141  and  _144
REMARK   61  A    between atoms: _147  and  _149
REMARK   62  A    between atoms: _149  and  _150
REMARK   63  A    between atoms: _149  and  _152
REMARK   64  A    between atoms: _152  and  _153
REMARK   65  A    between atoms: _156  and  _158
REMARK   66  A    between atoms: _158  and  _159
REMARK   67  A    between atoms: _158  and  _161
REMARK   68  A    between atoms: _161  and  _162
REMARK   69  A    between atoms: _166  and  _167
REMARK   70  A    between atoms: _172  and  _174
REMARK   71  A    between atoms: _174  and  _175
REMARK   72  A    between atoms: _178  and  _180
REMARK   73  A    between atoms: _180  and  _181
REMARK   74  A    between atoms: _180  and  _183
REMARK   75  A    between atoms: _183  and  _184
REMARK   76  A    between atoms: _189  and  _191
REMARK   77  A    between atoms: _191  and  _192
REMARK   78  A    between atoms: _191  and  _194
REMARK   79  A    between atoms: _197  and  _199
REMARK   80  A    between atoms: _199  and  _200
REMARK   81  A    between atoms: _199  and  _202
REMARK   82  A    between atoms: _202  and  _203
REMARK   83  A    between atoms: _206  and  _208
REMARK   84  A    between atoms: _208  and  _209
REMARK   85  A    between atoms: _211  and  _213
REMARK   86  A    between atoms: _213  and  _214
REMARK   87  A    between atoms: _213  and  _216
REMARK   88  A    between atoms: _216  and  _217
REMARK   89  A    between atoms: _217  and  _218
REMARK   90  A    between atoms: _218  and  _219
REMARK   91  A    between atoms: _228  and  _230
REMARK   92  A    between atoms: _230  and  _231
REMARK   93  A    between atoms: _230  and  _233
REMARK   94  A    between atoms: _233  and  _234
REMARK   95  A    between atoms: _239  and  _241
REMARK   96  A    between atoms: _241  and  _242
REMARK   97  A    between atoms: _241  and  _244
REMARK   98  A    between atoms: _244  and  _245
REMARK   99  A    between atoms: _245  and  _246
REMARK  100  A    between atoms: _246  and  _247
REMARK  101  A    between atoms: _256  and  _258
REMARK  102  A    between atoms: _258  and  _259
REMARK  103  A    between atoms: _258  and  _261
REMARK  104  A    between atoms: _261  and  _262
REMARK  105  A    between atoms: _265  and  _267
REMARK  106  A    between atoms: _267  and  _268
REMARK  107  A    between atoms: _267  and  _270
REMARK  108  A    between atoms: _270  and  _271
REMARK  109  A    between atoms: _274  and  _276
REMARK  110  A    between atoms: _276  and  _277
REMARK  111  A    between atoms: _276  and  _279
REMARK  112  A    between atoms: _279  and  _280
REMARK  113  A    between atoms: _283  and  _285
REMARK  114  A    between atoms: _285  and  _286
REMARK  115  A    between atoms: _285  and  _288
REMARK  116  A    between atoms: _288  and  _289
REMARK  117  A    between atoms: _292  and  _294
REMARK  118  A    between atoms: _294  and  _295
REMARK  119  A    between atoms: _297  and  _299
REMARK  120  A    between atoms: _299  and  _300
REMARK  121  A    between atoms: _303  and  _305
REMARK  122  A    between atoms: _305  and  _306
REMARK  123  A    between atoms: _305  and  _308
REMARK  124  A    between atoms: _308  and  _309
REMARK  125  A    between atoms: _312  and  _314
REMARK  126  A    between atoms: _314  and  _315
REMARK  127  A    between atoms: _314  and  _317
REMARK  128  A    between atoms: _317  and  _318
REMARK  129  A    between atoms: _321  and  _323
REMARK  130  A    between atoms: _323  and  _324
REMARK  131  A    between atoms: _323  and  _326
REMARK  132  A    between atoms: _326  and  _327
REMARK  133  A    between atoms: _330  and  _332
REMARK  134  A    between atoms: _332  and  _333
REMARK  135  A    between atoms: _332  and  _335
REMARK  136  A    between atoms: _338  and  _340
REMARK  137  A    between atoms: _340  and  _341
REMARK  138  A    between atoms: _340  and  _343
REMARK  139  A    between atoms: _343  and  _344
REMARK  140  A    between atoms: _347  and  _349
REMARK  141  A    between atoms: _349  and  _350
REMARK  142  A    between atoms: _349  and  _352
REMARK  143  A    between atoms: _352  and  _353
REMARK  144  A    between atoms: _353  and  _354
REMARK  145  A    between atoms: _356  and  _358
REMARK  146  A    between atoms: _358  and  _359
REMARK  147  A    between atoms: _358  and  _361
REMARK  148  A    between atoms: _361  and  _362
REMARK  149  A    between atoms: _365  and  _367
REMARK  150  A    between atoms: _367  and  _368
REMARK  151  A    between atoms: _371  and  _373
REMARK  152  A    between atoms: _373  and  _374
REMARK  153  A    between atoms: _376  and  _378
REMARK  154  A    between atoms: _378  and  _379
REMARK  155  A    between atoms: _378  and  _381
REMARK  156  A    between atoms: _381  and  _382
REMARK  157  A    between atoms: _385  and  _387
REMARK  158  A    between atoms: _387  and  _388
REMARK  159  A    between atoms: _390  and  _392
REMARK  160  A    between atoms: _392  and  _393
REMARK  161  A    between atoms: _395  and  _397
REMARK  162  A    between atoms: _397  and  _398
REMARK  163  A    between atoms: _397  and  _400
REMARK  164  A    between atoms: _400  and  _401
REMARK  165  A    between atoms: _407  and  _409
REMARK  166  A    between atoms: _409  and  _410
REMARK  167  A    between atoms: _409  and  _412
REMARK  168  A    between atoms: _415  and  _417
REMARK  169  A    between atoms: _417  and  _418
REMARK  170  A    between atoms: _417  and  _420
REMARK  171  A    between atoms: _423  and  _425
REMARK  172  A    between atoms: _425  and  _426
REMARK  173  A    between atoms: _425  and  _428
REMARK  174  A    between atoms: _428  and  _429
REMARK  175  A    between atoms: _432  and  _434
REMARK  176  A    between atoms: _434  and  _435
REMARK  177  A    between atoms: _434  and  _437
REMARK  178  A    between atoms: _437  and  _438
REMARK  179  A    between atoms: _442  and  _443
REMARK  180  A    between atoms: _448  and  _450
REMARK  181  A    between atoms: _450  and  _451
REMARK  182  A    between atoms: _454  and  _456
REMARK  183  A    between atoms: _456  and  _457
REMARK  184  A    between atoms: _456  and  _459
REMARK  185  A    between atoms: _459  and  _460
REMARK  186  A    between atoms: _465  and  _467
REMARK  187  A    between atoms: _467  and  _468
REMARK  188  A    between atoms: _467  and  _470
REMARK  189  A    between atoms: _473  and  _475
REMARK  190  A    between atoms: _475  and  _476
REMARK  191  A    between atoms: _475  and  _478
REMARK  192  A    between atoms: _478  and  _479
REMARK  193  A    between atoms: _482  and  _484
REMARK  194  A    between atoms: _484  and  _485
REMARK  195  A    between atoms: _487  and  _489
REMARK  196  A    between atoms: _489  and  _490
REMARK  197  A    between atoms: _489  and  _492
REMARK  198  A    between atoms: _492  and  _493
REMARK  199  A    between atoms: _493  and  _494
REMARK  200  A    between atoms: _494  and  _495
REMARK  201  A    between atoms: _504  and  _506
REMARK  202  A    between atoms: _506  and  _507
REMARK  203  A    between atoms: _506  and  _509
REMARK  204  A    between atoms: _509  and  _510
REMARK                            x       y       z     vdW  Elec       q    Type
REMARK                         _______ _______ _______ _____ _____    ______ ____
ROOT
ATOM      1  O   HOH     1     -13.734  -3.024 -27.304  0.00  0.00    +0.000 OA
ENDROOT
TORSDOF 0
REMARK  Name = ../refined-set-2016/3t3c/3t3c_pocket.pdb
REMARK  204 active torsions:
REMARK  status: ('A' for Active; 'I' for Inactive)
REMARK    1  A    between atoms: _1  and  _3
REMARK    2  A    between atoms: _3  and  _4
REMARK    3  A    between atoms: _3  and  _6
REMARK    4  A    between atoms: _6  and  _7
REMARK    5  A    between atoms: _7  and  _8
REMARK    6  A    between atoms: _8  and  _9
REMARK    7  A    between atoms: _18  and  _20
REMARK    8  A    between atoms: _20  and  _21
REMARK    9  A    between atoms: _20  and  _23
REMARK   10  A    between atoms: _23  and  _24
REMARK   11  A    between atoms: _27  and  _29
REMARK   12  A    between atoms: _29  and  _30
REMARK   13  A    between atoms: _29  and  _32
REMARK   14  A    between atoms: _32  and  _33
REMARK   15  A    between atoms: _36  and  _38
REMARK   16  A    between atoms: _38  and  _39
REMARK   17  A    between atoms: _38  and  _41
REMARK   18  A    between atoms: _41  and  _42
REMARK   19  A    between atoms: _45  and  _47
REMARK   20  A    between atoms: _47  and  _48
REMARK   21  A    between atoms: _47  and  _50
REMARK   22  A    between atoms: _50  and  _51
REMARK   23  A    between atoms: _54  and  _56
REMARK   24  A    between atoms: _56  and  _57
REMARK   25  A    between atoms: _59  and  _61
REMARK   26  A    between atoms: _61  and  _62
REMARK   27  A    between atoms: _65  and  _67
REMARK   28  A    between atoms: _67  and  _68
REMARK   29  A    between atoms: _67  and  _70
REMARK   30  A    between atoms: _70  and  _71
REMARK   31  A    between atoms: _74  and  _76
REMARK   32  A    between atoms: _76  and  _77
REMARK   33  A    between atoms: _76  and  _79
REMARK   34  A    between atoms: _79  and  _80
REMARK   35  A    between atoms: _83  and  _85
REMARK   36  A    between atoms: _85  and  _86
REMARK   37  A    between atoms: _85  and  _88
REMARK   38  A    between atoms: _88  and  _89
REMARK   39  A    between atoms: _92  and  _94
REMARK   40  A    between atoms: _94  and  _95
REMARK   41  A    between atoms: _94  and  _97
REMARK   42  A    between atoms: _100  and  _102
REMARK   43  A    between atoms: _102  and  _103
REMARK   44  A    between atoms: _102  and  _105
REMARK   45  A    between atoms: _105  and  _106
REMARK   46  A    between atoms: _109  and  _111
REMARK   47  A    between atoms: _111  and  _112
REMARK   48  A    between atoms: _115  and  _117
REMARK   49  A    between atoms: _117  and  _118
REMARK   50  A    between atoms: _120  and  _122
REMARK   51  A    between atoms: _122  and  _123
REMARK   52  A    between atoms: _122  and  _125
REMARK   53  A    between atoms: _125  and  _126
REMARK   54  A    between atoms: _129  and  _131
REMARK   55  A    between atoms: _131  and  _132
REMARK   56  A    between atoms: _134  and  _136
REMARK   57  A    between atoms: _136  and  _137
REMARK   58  A    between atoms: _139  and  _141
REMARK   59  A    between atoms: _141  and  _142
REMARK   60  A    between atoms: _141  and  _144
REMARK   61  A    between atoms: _147  and  _149
REMARK   62  A    between atoms: _149  and  _150
REMARK   63  A    between atoms: _149  and  _152
REMARK   64  A    between atoms: _152  and  _153
REMARK   65  A    between atoms: _156  and  _158
REMARK   66  A    between atoms: _158  and  _159
REMARK   67  A    between atoms: _158  and  _161
REMARK   68  A    between atoms: _161  and  _162
REMARK   69  A    between atoms: _166  and  _167
REMARK   70  A    between atoms: _172  and  _174
REMARK   71  A    between atoms: _174  and  _175
REMARK   72  A    between atoms: _178  and  _180
REMARK   73  A    between atoms: _180  and  _181
REMARK   74  A    between atoms: _180  and  _183
REMARK   75  A    between atoms: _183  and  _184
REMARK   76  A    between atoms: _189  and  _191
REMARK   77  A    between atoms: _191  and  _192
REMARK   78  A    between atoms: _191  and  _194
REMARK   79  A    between atoms: _197  and  _199
REMARK   80  A    between atoms: _199  and  _200
REMARK   81  A    between atoms: _199  and  _202
REMARK   82  A    between atoms: _202  and  _203
REMARK   83  A    between atoms: _206  and  _208
REMARK   84  A    between atoms: _208  and  _209
REMARK   85  A    between atoms: _211  and  _213
REMARK   86  A    between atoms: _213  and  _214
REMARK   87  A    between atoms: _213  and  _216
REMARK   88  A    between atoms: _216  and  _217
REMARK   89  A    between atoms: _217  and  _218
REMARK   90  A    between atoms: _218  and  _219
REMARK   91  A    between atoms: _228  and  _230
REMARK   92  A    between atoms: _230  and  _231
REMARK   93  A    between atoms: _230  and  _233
REMARK   94  A    between atoms: _233  and  _234
REMARK   95  A    between atoms: _239  and  _241
REMARK   96  A    between atoms: _241  and  _242
REMARK   97  A    between atoms: _241  and  _244
REMARK   98  A    between atoms: _244  and  _245
REMARK   99  A    between atoms: _245  and  _246
REMARK  100  A    between atoms: _246  and  _247
REMARK  101  A    between atoms: _256  and  _258
REMARK  102  A    between atoms: _258  and  _259
REMARK  103  A    between atoms: _258  and  _261
REMARK  104  A    between atoms: _261  and  _262
REMARK  105  A    between atoms: _265  and  _267
REMARK  106  A    between atoms: _267  and  _268
REMARK  107  A    between atoms: _267  and  _270
REMARK  108  A    between atoms: _270  and  _271
REMARK  109  A    between atoms: _274  and  _276
REMARK  110  A    between atoms: _276  and  _277
REMARK  111  A    between atoms: _276  and  _279
REMARK  112  A    between atoms: _279  and  _280
REMARK  113  A    between atoms: _283  and  _285
REMARK  114  A    between atoms: _285  and  _286
REMARK  115  A    between atoms: _285  and  _288
REMARK  116  A    between atoms: _288  and  _289
REMARK  117  A    between atoms: _292  and  _294
REMARK  118  A    between atoms: _294  and  _295
REMARK  119  A    between atoms: _297  and  _299
REMARK  120  A    between atoms: _299  and  _300
REMARK  121  A    between atoms: _303  and  _305
REMARK  122  A    between atoms: _305  and  _306
REMARK  123  A    between atoms: _305  and  _308
REMARK  124  A    between atoms: _308  and  _309
REMARK  125  A    between atoms: _312  and  _314
REMARK  126  A    between atoms: _314  and  _315
REMARK  127  A    between atoms: _314  and  _317
REMARK  128  A    between atoms: _317  and  _318
REMARK  129  A    between atoms: _321  and  _323
REMARK  130  A    between atoms: _323  and  _324
REMARK  131  A    between atoms: _323  and  _326
REMARK  132  A    between atoms: _326  and  _327
REMARK  133  A    between atoms: _330  and  _332
REMARK  134  A    between atoms: _332  and  _333
REMARK  135  A    between atoms: _332  and  _335
REMARK  136  A    between atoms: _338  and  _340
REMARK  137  A    between atoms: _340  and  _341
REMARK  138  A    between atoms: _340  and  _343
REMARK  139  A    between atoms: _343  and  _344
REMARK  140  A    between atoms: _347  and  _349
REMARK  141  A    between atoms: _349  and  _350
REMARK  142  A    between atoms: _349  and  _352
REMARK  143  A    between atoms: _352  and  _353
REMARK  144  A    between atoms: _353  and  _354
REMARK  145  A    between atoms: _356  and  _358
REMARK  146  A    between atoms: _358  and  _359
REMARK  147  A    between atoms: _358  and  _361
REMARK  148  A    between atoms: _361  and  _362
REMARK  149  A    between atoms: _365  and  _367
REMARK  150  A    between atoms: _367  and  _368
REMARK  151  A    between atoms: _371  and  _373
REMARK  152  A    between atoms: _373  and  _374
REMARK  153  A    between atoms: _376  and  _378
REMARK  154  A    between atoms: _378  and  _379
REMARK  155  A    between atoms: _378  and  _381
REMARK  156  A    between atoms: _381  and  _382
REMARK  157  A    between atoms: _385  and  _387
REMARK  158  A    between atoms: _387  and  _388
REMARK  159  A    between atoms: _390  and  _392
REMARK  160  A    between atoms: _392  and  _393
REMARK  161  A    between atoms: _395  and  _397
REMARK  162  A    between atoms: _397  and  _398
REMARK  163  A    between atoms: _397  and  _400
REMARK  164  A    between atoms: _400  and  _401
REMARK  165  A    between atoms: _407  and  _409
REMARK  166  A    between atoms: _409  and  _410
REMARK  167  A    between atoms: _409  and  _412
REMARK  168  A    between atoms: _415  and  _417
REMARK  169  A    between atoms: _417  and  _418
REMARK  170  A    between atoms: _417  and  _420
REMARK  171  A    between atoms: _423  and  _425
REMARK  172  A    between atoms: _425  and  _426
REMARK  173  A    between atoms: _425  and  _428
REMARK  174  A    between atoms: _428  and  _429
REMARK  175  A    between atoms: _432  and  _434
REMARK  176  A    between atoms: _434  and  _435
REMARK  177  A    between atoms: _434  and  _437
REMARK  178  A    between atoms: _437  and  _438
REMARK  179  A    between atoms: _442  and  _443
REMARK  180  A    between atoms: _448  and  _450
REMARK  181  A    between atoms: _450  and  _451
REMARK  182  A    between atoms: _454  and  _456
REMARK  183  A    between atoms: _456  and  _457
REMARK  184  A    between atoms: _456  and  _459
REMARK  185  A    between atoms: _459  and  _460
REMARK  186  A    between atoms: _465  and  _467
REMARK  187  A    between atoms: _467  and  _468
REMARK  188  A    between atoms: _467  and  _470
REMARK  189  A    between atoms: _473  and  _475
REMARK  190  A    between atoms: _475  and  _476
REMARK  191  A    between atoms: _475  and  _478
REMARK  192  A    between atoms: _478  and  _479
REMARK  193  A    between atoms: _482  and  _484
REMARK  194  A    between atoms: _484  and  _485
REMARK  195  A    between atoms: _487  and  _489
REMARK  196  A    between atoms: _489  and  _490
REMARK  197  A    between atoms: _489  and  _492
REMARK  198  A    between atoms: _492  and  _493
REMARK  199  A    between atoms: _493  and  _494
REMARK  200  A    between atoms: _494  and  _495
REMARK  201  A    between atoms: _504  and  _506
REMARK  202  A    between atoms: _506  and  _507
REMARK  203  A    between atoms: _506  and  _509
REMARK  204  A    between atoms: _509  and  _510
REMARK                            x       y       z     vdW  Elec       q    Type
REMARK                         _______ _______ _______ _____ _____    ______ ____
ROOT
ATOM      1  O   HOH     1     -12.366   3.717 -25.309  0.00  0.00    +0.000 OA
ENDROOT
TORSDOF 0
REMARK  Name = ../refined-set-2016/3t3c/3t3c_pocket.pdb
REMARK  204 active torsions:
REMARK  status: ('A' for Active; 'I' for Inactive)
REMARK    1  A    between atoms: _1  and  _3
REMARK    2  A    between atoms: _3  and  _4
REMARK    3  A    between atoms: _3  and  _6
REMARK    4  A    between atoms: _6  and  _7
REMARK    5  A    between atoms: _7  and  _8
REMARK    6  A    between atoms: _8  and  _9
REMARK    7  A    between atoms: _18  and  _20
REMARK    8  A    between atoms: _20  and  _21
REMARK    9  A    between atoms: _20  and  _23
REMARK   10  A    between atoms: _23  and  _24
REMARK   11  A    between atoms: _27  and  _29
REMARK   12  A    between atoms: _29  and  _30
REMARK   13  A    between atoms: _29  and  _32
REMARK   14  A    between atoms: _32  and  _33
REMARK   15  A    between atoms: _36  and  _38
REMARK   16  A    between atoms: _38  and  _39
REMARK   17  A    between atoms: _38  and  _41
REMARK   18  A    between atoms: _41  and  _42
REMARK   19  A    between atoms: _45  and  _47
REMARK   20  A    between atoms: _47  and  _48
REMARK   21  A    between atoms: _47  and  _50
REMARK   22  A    between atoms: _50  and  _51
REMARK   23  A    between atoms: _54  and  _56
REMARK   24  A    between atoms: _56  and  _57
REMARK   25  A    between atoms: _59  and  _61
REMARK   26  A    between atoms: _61  and  _62
REMARK   27  A    between atoms: _65  and  _67
REMARK   28  A    between atoms: _67  and  _68
REMARK   29  A    between atoms: _67  and  _70
REMARK   30  A    between atoms: _70  and  _71
REMARK   31  A    between atoms: _74  and  _76
REMARK   32  A    between atoms: _76  and  _77
REMARK   33  A    between atoms: _76  and  _79
REMARK   34  A    between atoms: _79  and  _80
REMARK   35  A    between atoms: _83  and  _85
REMARK   36  A    between atoms: _85  and  _86
REMARK   37  A    between atoms: _85  and  _88
REMARK   38  A    between atoms: _88  and  _89
REMARK   39  A    between atoms: _92  and  _94
REMARK   40  A    between atoms: _94  and  _95
REMARK   41  A    between atoms: _94  and  _97
REMARK   42  A    between atoms: _100  and  _102
REMARK   43  A    between atoms: _102  and  _103
REMARK   44  A    between atoms: _102  and  _105
REMARK   45  A    between atoms: _105  and  _106
REMARK   46  A    between atoms: _109  and  _111
REMARK   47  A    between atoms: _111  and  _112
REMARK   48  A    between atoms: _115  and  _117
REMARK   49  A    between atoms: _117  and  _118
REMARK   50  A    between atoms: _120  and  _122
REMARK   51  A    between atoms: _122  and  _123
REMARK   52  A    between atoms: _122  and  _125
REMARK   53  A    between atoms: _125  and  _126
REMARK   54  A    between atoms: _129  and  _131
REMARK   55  A    between atoms: _131  and  _132
REMARK   56  A    between atoms: _134  and  _136
REMARK   57  A    between atoms: _136  and  _137
REMARK   58  A    between atoms: _139  and  _141
REMARK   59  A    between atoms: _141  and  _142
REMARK   60  A    between atoms: _141  and  _144
REMARK   61  A    between atoms: _147  and  _149
REMARK   62  A    between atoms: _149  and  _150
REMARK   63  A    between atoms: _149  and  _152
REMARK   64  A    between atoms: _152  and  _153
REMARK   65  A    between atoms: _156  and  _158
REMARK   66  A    between atoms: _158  and  _159
REMARK   67  A    between atoms: _158  and  _161
REMARK   68  A    between atoms: _161  and  _162
REMARK   69  A    between atoms: _166  and  _167
REMARK   70  A    between atoms: _172  and  _174
REMARK   71  A    between atoms: _174  and  _175
REMARK   72  A    between atoms: _178  and  _180
REMARK   73  A    between atoms: _180  and  _181
REMARK   74  A    between atoms: _180  and  _183
REMARK   75  A    between atoms: _183  and  _184
REMARK   76  A    between atoms: _189  and  _191
REMARK   77  A    between atoms: _191  and  _192
REMARK   78  A    between atoms: _191  and  _194
REMARK   79  A    between atoms: _197  and  _199
REMARK   80  A    between atoms: _199  and  _200
REMARK   81  A    between atoms: _199  and  _202
REMARK   82  A    between atoms: _202  and  _203
REMARK   83  A    between atoms: _206  and  _208
REMARK   84  A    between atoms: _208  and  _209
REMARK   85  A    between atoms: _211  and  _213
REMARK   86  A    between atoms: _213  and  _214
REMARK   87  A    between atoms: _213  and  _216
REMARK   88  A    between atoms: _216  and  _217
REMARK   89  A    between atoms: _217  and  _218
REMARK   90  A    between atoms: _218  and  _219
REMARK   91  A    between atoms: _228  and  _230
REMARK   92  A    between atoms: _230  and  _231
REMARK   93  A    between atoms: _230  and  _233
REMARK   94  A    between atoms: _233  and  _234
REMARK   95  A    between atoms: _239  and  _241
REMARK   96  A    between atoms: _241  and  _242
REMARK   97  A    between atoms: _241  and  _244
REMARK   98  A    between atoms: _244  and  _245
REMARK   99  A    between atoms: _245  and  _246
REMARK  100  A    between atoms: _246  and  _247
REMARK  101  A    between atoms: _256  and  _258
REMARK  102  A    between atoms: _258  and  _259
REMARK  103  A    between atoms: _258  and  _261
REMARK  104  A    between atoms: _261  and  _262
REMARK  105  A    between atoms: _265  and  _267
REMARK  106  A    between atoms: _267  and  _268
REMARK  107  A    between atoms: _267  and  _270
REMARK  108  A    between atoms: _270  and  _271
REMARK  109  A    between atoms: _274  and  _276
REMARK  110  A    between atoms: _276  and  _277
REMARK  111  A    between atoms: _276  and  _279
REMARK  112  A    between atoms: _279  and  _280
REMARK  113  A    between atoms: _283  and  _285
REMARK  114  A    between atoms: _285  and  _286
REMARK  115  A    between atoms: _285  and  _288
REMARK  116  A    between atoms: _288  and  _289
REMARK  117  A    between atoms: _292  and  _294
REMARK  118  A    between atoms: _294  and  _295
REMARK  119  A    between atoms: _297  and  _299
REMARK  120  A    between atoms: _299  and  _300
REMARK  121  A    between atoms: _303  and  _305
REMARK  122  A    between atoms: _305  and  _306
REMARK  123  A    between atoms: _305  and  _308
REMARK  124  A    between atoms: _308  and  _309
REMARK  125  A    between atoms: _312  and  _314
REMARK  126  A    between atoms: _314  and  _315
REMARK  127  A    between atoms: _314  and  _317
REMARK  128  A    between atoms: _317  and  _318
REMARK  129  A    between atoms: _321  and  _323
REMARK  130  A    between atoms: _323  and  _324
REMARK  131  A    between atoms: _323  and  _326
REMARK  132  A    between atoms: _326  and  _327
REMARK  133  A    between atoms: _330  and  _332
REMARK  134  A    between atoms: _332  and  _333
REMARK  135  A    between atoms: _332  and  _335
REMARK  136  A    between atoms: _338  and  _340
REMARK  137  A    between atoms: _340  and  _341
REMARK  138  A    between atoms: _340  and  _343
REMARK  139  A    between atoms: _343  and  _344
REMARK  140  A    between atoms: _347  and  _349
REMARK  141  A    between atoms: _349  and  _350
REMARK  142  A    between atoms: _349  and  _352
REMARK  143  A    between atoms: _352  and  _353
REMARK  144  A    between atoms: _353  and  _354
REMARK  145  A    between atoms: _356  and  _358
REMARK  146  A    between atoms: _358  and  _359
REMARK  147  A    between atoms: _358  and  _361
REMARK  148  A    between atoms: _361  and  _362
REMARK  149  A    between atoms: _365  and  _367
REMARK  150  A    between atoms: _367  and  _368
REMARK  151  A    between atoms: _371  and  _373
REMARK  152  A    between atoms: _373  and  _374
REMARK  153  A    between atoms: _376  and  _378
REMARK  154  A    between atoms: _378  and  _379
REMARK  155  A    between atoms: _378  and  _381
REMARK  156  A    between atoms: _381  and  _382
REMARK  157  A    between atoms: _385  and  _387
REMARK  158  A    between atoms: _387  and  _388
REMARK  159  A    between atoms: _390  and  _392
REMARK  160  A    between atoms: _392  and  _393
REMARK  161  A    between atoms: _395  and  _397
REMARK  162  A    between atoms: _397  and  _398
REMARK  163  A    between atoms: _397  and  _400
REMARK  164  A    between atoms: _400  and  _401
REMARK  165  A    between atoms: _407  and  _409
REMARK  166  A    between atoms: _409  and  _410
REMARK  167  A    between atoms: _409  and  _412
REMARK  168  A    between atoms: _415  and  _417
REMARK  169  A    between atoms: _417  and  _418
REMARK  170  A    between atoms: _417  and  _420
REMARK  171  A    between atoms: _423  and  _425
REMARK  172  A    between atoms: _425  and  _426
REMARK  173  A    between atoms: _425  and  _428
REMARK  174  A    between atoms: _428  and  _429
REMARK  175  A    between atoms: _432  and  _434
REMARK  176  A    between atoms: _434  and  _435
REMARK  177  A    between atoms: _434  and  _437
REMARK  178  A    between atoms: _437  and  _438
REMARK  179  A    between atoms: _442  and  _443
REMARK  180  A    between atoms: _448  and  _450
REMARK  181  A    between atoms: _450  and  _451
REMARK  182  A    between atoms: _454  and  _456
REMARK  183  A    between atoms: _456  and  _457
REMARK  184  A    between atoms: _456  and  _459
REMARK  185  A    between atoms: _459  and  _460
REMARK  186  A    between atoms: _465  and  _467
REMARK  187  A    between atoms: _467  and  _468
REMARK  188  A    between atoms: _467  and  _470
REMARK  189  A    between atoms: _473  and  _475
REMARK  190  A    between atoms: _475  and  _476
REMARK  191  A    between atoms: _475  and  _478
REMARK  192  A    between atoms: _478  and  _479
REMARK  193  A    between atoms: _482  and  _484
REMARK  194  A    between atoms: _484  and  _485
REMARK  195  A    between atoms: _487  and  _489
REMARK  196  A    between atoms: _489  and  _490
REMARK  197  A    between atoms: _489  and  _492
REMARK  198  A    between atoms: _492  and  _493
REMARK  199  A    between atoms: _493  and  _494
REMARK  200  A    between atoms: _494  and  _495
REMARK  201  A    between atoms: _504  and  _506
REMARK  202  A    between atoms: _506  and  _507
REMARK  203  A    between atoms: _506  and  _509
REMARK  204  A    between atoms: _509  and  _510
REMARK                            x       y       z     vdW  Elec       q    Type
REMARK                         _______ _______ _______ _____ _____    ______ ____
ROOT
ATOM      1  O   HOH     1     -13.725  -0.518 -28.343  0.00  0.00    +0.000 OA
ENDROOT
TORSDOF 0
REMARK  Name = ../refined-set-2016/3t3c/3t3c_pocket.pdb
REMARK  204 active torsions:
REMARK  status: ('A' for Active; 'I' for Inactive)
REMARK    1  A    between atoms: _1  and  _3
REMARK    2  A    between atoms: _3  and  _4
REMARK    3  A    between atoms: _3  and  _6
REMARK    4  A    between atoms: _6  and  _7
REMARK    5  A    between atoms: _7  and  _8
REMARK    6  A    between atoms: _8  and  _9
REMARK    7  A    between atoms: _18  and  _20
REMARK    8  A    between atoms: _20  and  _21
REMARK    9  A    between atoms: _20  and  _23
REMARK   10  A    between atoms: _23  and  _24
REMARK   11  A    between atoms: _27  and  _29
REMARK   12  A    between atoms: _29  and  _30
REMARK   13  A    between atoms: _29  and  _32
REMARK   14  A    between atoms: _32  and  _33
REMARK   15  A    between atoms: _36  and  _38
REMARK   16  A    between atoms: _38  and  _39
REMARK   17  A    between atoms: _38  and  _41
REMARK   18  A    between atoms: _41  and  _42
REMARK   19  A    between atoms: _45  and  _47
REMARK   20  A    between atoms: _47  and  _48
REMARK   21  A    between atoms: _47  and  _50
REMARK   22  A    between atoms: _50  and  _51
REMARK   23  A    between atoms: _54  and  _56
REMARK   24  A    between atoms: _56  and  _57
REMARK   25  A    between atoms: _59  and  _61
REMARK   26  A    between atoms: _61  and  _62
REMARK   27  A    between atoms: _65  and  _67
REMARK   28  A    between atoms: _67  and  _68
REMARK   29  A    between atoms: _67  and  _70
REMARK   30  A    between atoms: _70  and  _71
REMARK   31  A    between atoms: _74  and  _76
REMARK   32  A    between atoms: _76  and  _77
REMARK   33  A    between atoms: _76  and  _79
REMARK   34  A    between atoms: _79  and  _80
REMARK   35  A    between atoms: _83  and  _85
REMARK   36  A    between atoms: _85  and  _86
REMARK   37  A    between atoms: _85  and  _88
REMARK   38  A    between atoms: _88  and  _89
REMARK   39  A    between atoms: _92  and  _94
REMARK   40  A    between atoms: _94  and  _95
REMARK   41  A    between atoms: _94  and  _97
REMARK   42  A    between atoms: _100  and  _102
REMARK   43  A    between atoms: _102  and  _103
REMARK   44  A    between atoms: _102  and  _105
REMARK   45  A    between atoms: _105  and  _106
REMARK   46  A    between atoms: _109  and  _111
REMARK   47  A    between atoms: _111  and  _112
REMARK   48  A    between atoms: _115  and  _117
REMARK   49  A    between atoms: _117  and  _118
REMARK   50  A    between atoms: _120  and  _122
REMARK   51  A    between atoms: _122  and  _123
REMARK   52  A    between atoms: _122  and  _125
REMARK   53  A    between atoms: _125  and  _126
REMARK   54  A    between atoms: _129  and  _131
REMARK   55  A    between atoms: _131  and  _132
REMARK   56  A    between atoms: _134  and  _136
REMARK   57  A    between atoms: _136  and  _137
REMARK   58  A    between atoms: _139  and  _141
REMARK   59  A    between atoms: _141  and  _142
REMARK   60  A    between atoms: _141  and  _144
REMARK   61  A    between atoms: _147  and  _149
REMARK   62  A    between atoms: _149  and  _150
REMARK   63  A    between atoms: _149  and  _152
REMARK   64  A    between atoms: _152  and  _153
REMARK   65  A    between atoms: _156  and  _158
REMARK   66  A    between atoms: _158  and  _159
REMARK   67  A    between atoms: _158  and  _161
REMARK   68  A    between atoms: _161  and  _162
REMARK   69  A    between atoms: _166  and  _167
REMARK   70  A    between atoms: _172  and  _174
REMARK   71  A    between atoms: _174  and  _175
REMARK   72  A    between atoms: _178  and  _180
REMARK   73  A    between atoms: _180  and  _181
REMARK   74  A    between atoms: _180  and  _183
REMARK   75  A    between atoms: _183  and  _184
REMARK   76  A    between atoms: _189  and  _191
REMARK   77  A    between atoms: _191  and  _192
REMARK   78  A    between atoms: _191  and  _194
REMARK   79  A    between atoms: _197  and  _199
REMARK   80  A    between atoms: _199  and  _200
REMARK   81  A    between atoms: _199  and  _202
REMARK   82  A    between atoms: _202  and  _203
REMARK   83  A    between atoms: _206  and  _208
REMARK   84  A    between atoms: _208  and  _209
REMARK   85  A    between atoms: _211  and  _213
REMARK   86  A    between atoms: _213  and  _214
REMARK   87  A    between atoms: _213  and  _216
REMARK   88  A    between atoms: _216  and  _217
REMARK   89  A    between atoms: _217  and  _218
REMARK   90  A    between atoms: _218  and  _219
REMARK   91  A    between atoms: _228  and  _230
REMARK   92  A    between atoms: _230  and  _231
REMARK   93  A    between atoms: _230  and  _233
REMARK   94  A    between atoms: _233  and  _234
REMARK   95  A    between atoms: _239  and  _241
REMARK   96  A    between atoms: _241  and  _242
REMARK   97  A    between atoms: _241  and  _244
REMARK   98  A    between atoms: _244  and  _245
REMARK   99  A    between atoms: _245  and  _246
REMARK  100  A    between atoms: _246  and  _247
REMARK  101  A    between atoms: _256  and  _258
REMARK  102  A    between atoms: _258  and  _259
REMARK  103  A    between atoms: _258  and  _261
REMARK  104  A    between atoms: _261  and  _262
REMARK  105  A    between atoms: _265  and  _267
REMARK  106  A    between atoms: _267  and  _268
REMARK  107  A    between atoms: _267  and  _270
REMARK  108  A    between atoms: _270  and  _271
REMARK  109  A    between atoms: _274  and  _276
REMARK  110  A    between atoms: _276  and  _277
REMARK  111  A    between atoms: _276  and  _279
REMARK  112  A    between atoms: _279  and  _280
REMARK  113  A    between atoms: _283  and  _285
REMARK  114  A    between atoms: _285  and  _286
REMARK  115  A    between atoms: _285  and  _288
REMARK  116  A    between atoms: _288  and  _289
REMARK  117  A    between atoms: _292  and  _294
REMARK  118  A    between atoms: _294  and  _295
REMARK  119  A    between atoms: _297  and  _299
REMARK  120  A    between atoms: _299  and  _300
REMARK  121  A    between atoms: _303  and  _305
REMARK  122  A    between atoms: _305  and  _306
REMARK  123  A    between atoms: _305  and  _308
REMARK  124  A    between atoms: _308  and  _309
REMARK  125  A    between atoms: _312  and  _314
REMARK  126  A    between atoms: _314  and  _315
REMARK  127  A    between atoms: _314  and  _317
REMARK  128  A    between atoms: _317  and  _318
REMARK  129  A    between atoms: _321  and  _323
REMARK  130  A    between atoms: _323  and  _324
REMARK  131  A    between atoms: _323  and  _326
REMARK  132  A    between atoms: _326  and  _327
REMARK  133  A    between atoms: _330  and  _332
REMARK  134  A    between atoms: _332  and  _333
REMARK  135  A    between atoms: _332  and  _335
REMARK  136  A    between atoms: _338  and  _340
REMARK  137  A    between atoms: _340  and  _341
REMARK  138  A    between atoms: _340  and  _343
REMARK  139  A    between atoms: _343  and  _344
REMARK  140  A    between atoms: _347  and  _349
REMARK  141  A    between atoms: _349  and  _350
REMARK  142  A    between atoms: _349  and  _352
REMARK  143  A    between atoms: _352  and  _353
REMARK  144  A    between atoms: _353  and  _354
REMARK  145  A    between atoms: _356  and  _358
REMARK  146  A    between atoms: _358  and  _359
REMARK  147  A    between atoms: _358  and  _361
REMARK  148  A    between atoms: _361  and  _362
REMARK  149  A    between atoms: _365  and  _367
REMARK  150  A    between atoms: _367  and  _368
REMARK  151  A    between atoms: _371  and  _373
REMARK  152  A    between atoms: _373  and  _374
REMARK  153  A    between atoms: _376  and  _378
REMARK  154  A    between atoms: _378  and  _379
REMARK  155  A    between atoms: _378  and  _381
REMARK  156  A    between atoms: _381  and  _382
REMARK  157  A    between atoms: _385  and  _387
REMARK  158  A    between atoms: _387  and  _388
REMARK  159  A    between atoms: _390  and  _392
REMARK  160  A    between atoms: _392  and  _393
REMARK  161  A    between atoms: _395  and  _397
REMARK  162  A    between atoms: _397  and  _398
REMARK  163  A    between atoms: _397  and  _400
REMARK  164  A    between atoms: _400  and  _401
REMARK  165  A    between atoms: _407  and  _409
REMARK  166  A    between atoms: _409  and  _410
REMARK  167  A    between atoms: _409  and  _412
REMARK  168  A    between atoms: _415  and  _417
REMARK  169  A    between atoms: _417  and  _418
REMARK  170  A    between atoms: _417  and  _420
REMARK  171  A    between atoms: _423  and  _425
REMARK  172  A    between atoms: _425  and  _426
REMARK  173  A    between atoms: _425  and  _428
REMARK  174  A    between atoms: _428  and  _429
REMARK  175  A    between atoms: _432  and  _434
REMARK  176  A    between atoms: _434  and  _435
REMARK  177  A    between atoms: _434  and  _437
REMARK  178  A    between atoms: _437  and  _438
REMARK  179  A    between atoms: _442  and  _443
REMARK  180  A    between atoms: _448  and  _450
REMARK  181  A    between atoms: _450  and  _451
REMARK  182  A    between atoms: _454  and  _456
REMARK  183  A    between atoms: _456  and  _457
REMARK  184  A    between atoms: _456  and  _459
REMARK  185  A    between atoms: _459  and  _460
REMARK  186  A    between atoms: _465  and  _467
REMARK  187  A    between atoms: _467  and  _468
REMARK  188  A    between atoms: _467  and  _470
REMARK  189  A    between atoms: _473  and  _475
REMARK  190  A    between atoms: _475  and  _476
REMARK  191  A    between atoms: _475  and  _478
REMARK  192  A    between atoms: _478  and  _479
REMARK  193  A    between atoms: _482  and  _484
REMARK  194  A    between atoms: _484  and  _485
REMARK  195  A    between atoms: _487  and  _489
REMARK  196  A    between atoms: _489  and  _490
REMARK  197  A    between atoms: _489  and  _492
REMARK  198  A    between atoms: _492  and  _493
REMARK  199  A    between atoms: _493  and  _494
REMARK  200  A    between atoms: _494  and  _495
REMARK  201  A    between atoms: _504  and  _506
REMARK  202  A    between atoms: _506  and  _507
REMARK  203  A    between atoms: _506  and  _509
REMARK  204  A    between atoms: _509  and  _510
REMARK                            x       y       z     vdW  Elec       q    Type
REMARK                         _______ _______ _______ _____ _____    ______ ____
ROOT
ATOM      1  O   HOH     1      -2.387   8.883 -24.220  0.00  0.00    +0.000 OA
ENDROOT
TORSDOF 0
REMARK  Name = ../refined-set-2016/3t3c/3t3c_pocket.pdb
REMARK  204 active torsions:
REMARK  status: ('A' for Active; 'I' for Inactive)
REMARK    1  A    between atoms: _1  and  _3
REMARK    2  A    between atoms: _3  and  _4
REMARK    3  A    between atoms: _3  and  _6
REMARK    4  A    between atoms: _6  and  _7
REMARK    5  A    between atoms: _7  and  _8
REMARK    6  A    between atoms: _8  and  _9
REMARK    7  A    between atoms: _18  and  _20
REMARK    8  A    between atoms: _20  and  _21
REMARK    9  A    between atoms: _20  and  _23
REMARK   10  A    between atoms: _23  and  _24
REMARK   11  A    between atoms: _27  and  _29
REMARK   12  A    between atoms: _29  and  _30
REMARK   13  A    between atoms: _29  and  _32
REMARK   14  A    between atoms: _32  and  _33
REMARK   15  A    between atoms: _36  and  _38
REMARK   16  A    between atoms: _38  and  _39
REMARK   17  A    between atoms: _38  and  _41
REMARK   18  A    between atoms: _41  and  _42
REMARK   19  A    between atoms: _45  and  _47
REMARK   20  A    between atoms: _47  and  _48
REMARK   21  A    between atoms: _47  and  _50
REMARK   22  A    between atoms: _50  and  _51
REMARK   23  A    between atoms: _54  and  _56
REMARK   24  A    between atoms: _56  and  _57
REMARK   25  A    between atoms: _59  and  _61
REMARK   26  A    between atoms: _61  and  _62
REMARK   27  A    between atoms: _65  and  _67
REMARK   28  A    between atoms: _67  and  _68
REMARK   29  A    between atoms: _67  and  _70
REMARK   30  A    between atoms: _70  and  _71
REMARK   31  A    between atoms: _74  and  _76
REMARK   32  A    between atoms: _76  and  _77
REMARK   33  A    between atoms: _76  and  _79
REMARK   34  A    between atoms: _79  and  _80
REMARK   35  A    between atoms: _83  and  _85
REMARK   36  A    between atoms: _85  and  _86
REMARK   37  A    between atoms: _85  and  _88
REMARK   38  A    between atoms: _88  and  _89
REMARK   39  A    between atoms: _92  and  _94
REMARK   40  A    between atoms: _94  and  _95
REMARK   41  A    between atoms: _94  and  _97
REMARK   42  A    between atoms: _100  and  _102
REMARK   43  A    between atoms: _102  and  _103
REMARK   44  A    between atoms: _102  and  _105
REMARK   45  A    between atoms: _105  and  _106
REMARK   46  A    between atoms: _109  and  _111
REMARK   47  A    between atoms: _111  and  _112
REMARK   48  A    between atoms: _115  and  _117
REMARK   49  A    between atoms: _117  and  _118
REMARK   50  A    between atoms: _120  and  _122
REMARK   51  A    between atoms: _122  and  _123
REMARK   52  A    between atoms: _122  and  _125
REMARK   53  A    between atoms: _125  and  _126
REMARK   54  A    between atoms: _129  and  _131
REMARK   55  A    between atoms: _131  and  _132
REMARK   56  A    between atoms: _134  and  _136
REMARK   57  A    between atoms: _136  and  _137
REMARK   58  A    between atoms: _139  and  _141
REMARK   59  A    between atoms: _141  and  _142
REMARK   60  A    between atoms: _141  and  _144
REMARK   61  A    between atoms: _147  and  _149
REMARK   62  A    between atoms: _149  and  _150
REMARK   63  A    between atoms: _149  and  _152
REMARK   64  A    between atoms: _152  and  _153
REMARK   65  A    between atoms: _156  and  _158
REMARK   66  A    between atoms: _158  and  _159
REMARK   67  A    between atoms: _158  and  _161
REMARK   68  A    between atoms: _161  and  _162
REMARK   69  A    between atoms: _166  and  _167
REMARK   70  A    between atoms: _172  and  _174
REMARK   71  A    between atoms: _174  and  _175
REMARK   72  A    between atoms: _178  and  _180
REMARK   73  A    between atoms: _180  and  _181
REMARK   74  A    between atoms: _180  and  _183
REMARK   75  A    between atoms: _183  and  _184
REMARK   76  A    between atoms: _189  and  _191
REMARK   77  A    between atoms: _191  and  _192
REMARK   78  A    between atoms: _191  and  _194
REMARK   79  A    between atoms: _197  and  _199
REMARK   80  A    between atoms: _199  and  _200
REMARK   81  A    between atoms: _199  and  _202
REMARK   82  A    between atoms: _202  and  _203
REMARK   83  A    between atoms: _206  and  _208
REMARK   84  A    between atoms: _208  and  _209
REMARK   85  A    between atoms: _211  and  _213
REMARK   86  A    between atoms: _213  and  _214
REMARK   87  A    between atoms: _213  and  _216
REMARK   88  A    between atoms: _216  and  _217
REMARK   89  A    between atoms: _217  and  _218
REMARK   90  A    between atoms: _218  and  _219
REMARK   91  A    between atoms: _228  and  _230
REMARK   92  A    between atoms: _230  and  _231
REMARK   93  A    between atoms: _230  and  _233
REMARK   94  A    between atoms: _233  and  _234
REMARK   95  A    between atoms: _239  and  _241
REMARK   96  A    between atoms: _241  and  _242
REMARK   97  A    between atoms: _241  and  _244
REMARK   98  A    between atoms: _244  and  _245
REMARK   99  A    between atoms: _245  and  _246
REMARK  100  A    between atoms: _246  and  _247
REMARK  101  A    between atoms: _256  and  _258
REMARK  102  A    between atoms: _258  and  _259
REMARK  103  A    between atoms: _258  and  _261
REMARK  104  A    between atoms: _261  and  _262
REMARK  105  A    between atoms: _265  and  _267
REMARK  106  A    between atoms: _267  and  _268
REMARK  107  A    between atoms: _267  and  _270
REMARK  108  A    between atoms: _270  and  _271
REMARK  109  A    between atoms: _274  and  _276
REMARK  110  A    between atoms: _276  and  _277
REMARK  111  A    between atoms: _276  and  _279
REMARK  112  A    between atoms: _279  and  _280
REMARK  113  A    between atoms: _283  and  _285
REMARK  114  A    between atoms: _285  and  _286
REMARK  115  A    between atoms: _285  and  _288
REMARK  116  A    between atoms: _288  and  _289
REMARK  117  A    between atoms: _292  and  _294
REMARK  118  A    between atoms: _294  and  _295
REMARK  119  A    between atoms: _297  and  _299
REMARK  120  A    between atoms: _299  and  _300
REMARK  121  A    between atoms: _303  and  _305
REMARK  122  A    between atoms: _305  and  _306
REMARK  123  A    between atoms: _305  and  _308
REMARK  124  A    between atoms: _308  and  _309
REMARK  125  A    between atoms: _312  and  _314
REMARK  126  A    between atoms: _314  and  _315
REMARK  127  A    between atoms: _314  and  _317
REMARK  128  A    between atoms: _317  and  _318
REMARK  129  A    between atoms: _321  and  _323
REMARK  130  A    between atoms: _323  and  _324
REMARK  131  A    between atoms: _323  and  _326
REMARK  132  A    between atoms: _326  and  _327
REMARK  133  A    between atoms: _330  and  _332
REMARK  134  A    between atoms: _332  and  _333
REMARK  135  A    between atoms: _332  and  _335
REMARK  136  A    between atoms: _338  and  _340
REMARK  137  A    between atoms: _340  and  _341
REMARK  138  A    between atoms: _340  and  _343
REMARK  139  A    between atoms: _343  and  _344
REMARK  140  A    between atoms: _347  and  _349
REMARK  141  A    between atoms: _349  and  _350
REMARK  142  A    between atoms: _349  and  _352
REMARK  143  A    between atoms: _352  and  _353
REMARK  144  A    between atoms: _353  and  _354
REMARK  145  A    between atoms: _356  and  _358
REMARK  146  A    between atoms: _358  and  _359
REMARK  147  A    between atoms: _358  and  _361
REMARK  148  A    between atoms: _361  and  _362
REMARK  149  A    between atoms: _365  and  _367
REMARK  150  A    between atoms: _367  and  _368
REMARK  151  A    between atoms: _371  and  _373
REMARK  152  A    between atoms: _373  and  _374
REMARK  153  A    between atoms: _376  and  _378
REMARK  154  A    between atoms: _378  and  _379
REMARK  155  A    between atoms: _378  and  _381
REMARK  156  A    between atoms: _381  and  _382
REMARK  157  A    between atoms: _385  and  _387
REMARK  158  A    between atoms: _387  and  _388
REMARK  159  A    between atoms: _390  and  _392
REMARK  160  A    between atoms: _392  and  _393
REMARK  161  A    between atoms: _395  and  _397
REMARK  162  A    between atoms: _397  and  _398
REMARK  163  A    between atoms: _397  and  _400
REMARK  164  A    between atoms: _400  and  _401
REMARK  165  A    between atoms: _407  and  _409
REMARK  166  A    between atoms: _409  and  _410
REMARK  167  A    between atoms: _409  and  _412
REMARK  168  A    between atoms: _415  and  _417
REMARK  169  A    between atoms: _417  and  _418
REMARK  170  A    between atoms: _417  and  _420
REMARK  171  A    between atoms: _423  and  _425
REMARK  172  A    between atoms: _425  and  _426
REMARK  173  A    between atoms: _425  and  _428
REMARK  174  A    between atoms: _428  and  _429
REMARK  175  A    between atoms: _432  and  _434
REMARK  176  A    between atoms: _434  and  _435
REMARK  177  A    between atoms: _434  and  _437
REMARK  178  A    between atoms: _437  and  _438
REMARK  179  A    between atoms: _442  and  _443
REMARK  180  A    between atoms: _448  and  _450
REMARK  181  A    between atoms: _450  and  _451
REMARK  182  A    between atoms: _454  and  _456
REMARK  183  A    between atoms: _456  and  _457
REMARK  184  A    between atoms: _456  and  _459
REMARK  185  A    between atoms: _459  and  _460
REMARK  186  A    between atoms: _465  and  _467
REMARK  187  A    between atoms: _467  and  _468
REMARK  188  A    between atoms: _467  and  _470
REMARK  189  A    between atoms: _473  and  _475
REMARK  190  A    between atoms: _475  and  _476
REMARK  191  A    between atoms: _475  and  _478
REMARK  192  A    between atoms: _478  and  _479
REMARK  193  A    between atoms: _482  and  _484
REMARK  194  A    between atoms: _484  and  _485
REMARK  195  A    between atoms: _487  and  _489
REMARK  196  A    between atoms: _489  and  _490
REMARK  197  A    between atoms: _489  and  _492
REMARK  198  A    between atoms: _492  and  _493
REMARK  199  A    between atoms: _493  and  _494
REMARK  200  A    between atoms: _494  and  _495
REMARK  201  A    between atoms: _504  and  _506
REMARK  202  A    between atoms: _506  and  _507
REMARK  203  A    between atoms: _506  and  _509
REMARK  204  A    between atoms: _509  and  _510
REMARK                            x       y       z     vdW  Elec       q    Type
REMARK                         _______ _______ _______ _____ _____    ______ ____
ROOT
ATOM      1  O   HOH     1      -2.761   4.395 -24.188  0.00  0.00    +0.000 OA
ENDROOT
TORSDOF 0
REMARK  Name = ../refined-set-2016/3t3c/3t3c_pocket.pdb
REMARK  204 active torsions:
REMARK  status: ('A' for Active; 'I' for Inactive)
REMARK    1  A    between atoms: _1  and  _3
REMARK    2  A    between atoms: _3  and  _4
REMARK    3  A    between atoms: _3  and  _6
REMARK    4  A    between atoms: _6  and  _7
REMARK    5  A    between atoms: _7  and  _8
REMARK    6  A    between atoms: _8  and  _9
REMARK    7  A    between atoms: _18  and  _20
REMARK    8  A    between atoms: _20  and  _21
REMARK    9  A    between atoms: _20  and  _23
REMARK   10  A    between atoms: _23  and  _24
REMARK   11  A    between atoms: _27  and  _29
REMARK   12  A    between atoms: _29  and  _30
REMARK   13  A    between atoms: _29  and  _32
REMARK   14  A    between atoms: _32  and  _33
REMARK   15  A    between atoms: _36  and  _38
REMARK   16  A    between atoms: _38  and  _39
REMARK   17  A    between atoms: _38  and  _41
REMARK   18  A    between atoms: _41  and  _42
REMARK   19  A    between atoms: _45  and  _47
REMARK   20  A    between atoms: _47  and  _48
REMARK   21  A    between atoms: _47  and  _50
REMARK   22  A    between atoms: _50  and  _51
REMARK   23  A    between atoms: _54  and  _56
REMARK   24  A    between atoms: _56  and  _57
REMARK   25  A    between atoms: _59  and  _61
REMARK   26  A    between atoms: _61  and  _62
REMARK   27  A    between atoms: _65  and  _67
REMARK   28  A    between atoms: _67  and  _68
REMARK   29  A    between atoms: _67  and  _70
REMARK   30  A    between atoms: _70  and  _71
REMARK   31  A    between atoms: _74  and  _76
REMARK   32  A    between atoms: _76  and  _77
REMARK   33  A    between atoms: _76  and  _79
REMARK   34  A    between atoms: _79  and  _80
REMARK   35  A    between atoms: _83  and  _85
REMARK   36  A    between atoms: _85  and  _86
REMARK   37  A    between atoms: _85  and  _88
REMARK   38  A    between atoms: _88  and  _89
REMARK   39  A    between atoms: _92  and  _94
REMARK   40  A    between atoms: _94  and  _95
REMARK   41  A    between atoms: _94  and  _97
REMARK   42  A    between atoms: _100  and  _102
REMARK   43  A    between atoms: _102  and  _103
REMARK   44  A    between atoms: _102  and  _105
REMARK   45  A    between atoms: _105  and  _106
REMARK   46  A    between atoms: _109  and  _111
REMARK   47  A    between atoms: _111  and  _112
REMARK   48  A    between atoms: _115  and  _117
REMARK   49  A    between atoms: _117  and  _118
REMARK   50  A    between atoms: _120  and  _122
REMARK   51  A    between atoms: _122  and  _123
REMARK   52  A    between atoms: _122  and  _125
REMARK   53  A    between atoms: _125  and  _126
REMARK   54  A    between atoms: _129  and  _131
REMARK   55  A    between atoms: _131  and  _132
REMARK   56  A    between atoms: _134  and  _136
REMARK   57  A    between atoms: _136  and  _137
REMARK   58  A    between atoms: _139  and  _141
REMARK   59  A    between atoms: _141  and  _142
REMARK   60  A    between atoms: _141  and  _144
REMARK   61  A    between atoms: _147  and  _149
REMARK   62  A    between atoms: _149  and  _150
REMARK   63  A    between atoms: _149  and  _152
REMARK   64  A    between atoms: _152  and  _153
REMARK   65  A    between atoms: _156  and  _158
REMARK   66  A    between atoms: _158  and  _159
REMARK   67  A    between atoms: _158  and  _161
REMARK   68  A    between atoms: _161  and  _162
REMARK   69  A    between atoms: _166  and  _167
REMARK   70  A    between atoms: _172  and  _174
REMARK   71  A    between atoms: _174  and  _175
REMARK   72  A    between atoms: _178  and  _180
REMARK   73  A    between atoms: _180  and  _181
REMARK   74  A    between atoms: _180  and  _183
REMARK   75  A    between atoms: _183  and  _184
REMARK   76  A    between atoms: _189  and  _191
REMARK   77  A    between atoms: _191  and  _192
REMARK   78  A    between atoms: _191  and  _194
REMARK   79  A    between atoms: _197  and  _199
REMARK   80  A    between atoms: _199  and  _200
REMARK   81  A    between atoms: _199  and  _202
REMARK   82  A    between atoms: _202  and  _203
REMARK   83  A    between atoms: _206  and  _208
REMARK   84  A    between atoms: _208  and  _209
REMARK   85  A    between atoms: _211  and  _213
REMARK   86  A    between atoms: _213  and  _214
REMARK   87  A    between atoms: _213  and  _216
REMARK   88  A    between atoms: _216  and  _217
REMARK   89  A    between atoms: _217  and  _218
REMARK   90  A    between atoms: _218  and  _219
REMARK   91  A    between atoms: _228  and  _230
REMARK   92  A    between atoms: _230  and  _231
REMARK   93  A    between atoms: _230  and  _233
REMARK   94  A    between atoms: _233  and  _234
REMARK   95  A    between atoms: _239  and  _241
REMARK   96  A    between atoms: _241  and  _242
REMARK   97  A    between atoms: _241  and  _244
REMARK   98  A    between atoms: _244  and  _245
REMARK   99  A    between atoms: _245  and  _246
REMARK  100  A    between atoms: _246  and  _247
REMARK  101  A    between atoms: _256  and  _258
REMARK  102  A    between atoms: _258  and  _259
REMARK  103  A    between atoms: _258  and  _261
REMARK  104  A    between atoms: _261  and  _262
REMARK  105  A    between atoms: _265  and  _267
REMARK  106  A    between atoms: _267  and  _268
REMARK  107  A    between atoms: _267  and  _270
REMARK  108  A    between atoms: _270  and  _271
REMARK  109  A    between atoms: _274  and  _276
REMARK  110  A    between atoms: _276  and  _277
REMARK  111  A    between atoms: _276  and  _279
REMARK  112  A    between atoms: _279  and  _280
REMARK  113  A    between atoms: _283  and  _285
REMARK  114  A    between atoms: _285  and  _286
REMARK  115  A    between atoms: _285  and  _288
REMARK  116  A    between atoms: _288  and  _289
REMARK  117  A    between atoms: _292  and  _294
REMARK  118  A    between atoms: _294  and  _295
REMARK  119  A    between atoms: _297  and  _299
REMARK  120  A    between atoms: _299  and  _300
REMARK  121  A    between atoms: _303  and  _305
REMARK  122  A    between atoms: _305  and  _306
REMARK  123  A    between atoms: _305  and  _308
REMARK  124  A    between atoms: _308  and  _309
REMARK  125  A    between atoms: _312  and  _314
REMARK  126  A    between atoms: _314  and  _315
REMARK  127  A    between atoms: _314  and  _317
REMARK  128  A    between atoms: _317  and  _318
REMARK  129  A    between atoms: _321  and  _323
REMARK  130  A    between atoms: _323  and  _324
REMARK  131  A    between atoms: _323  and  _326
REMARK  132  A    between atoms: _326  and  _327
REMARK  133  A    between atoms: _330  and  _332
REMARK  134  A    between atoms: _332  and  _333
REMARK  135  A    between atoms: _332  and  _335
REMARK  136  A    between atoms: _338  and  _340
REMARK  137  A    between atoms: _340  and  _341
REMARK  138  A    between atoms: _340  and  _343
REMARK  139  A    between atoms: _343  and  _344
REMARK  140  A    between atoms: _347  and  _349
REMARK  141  A    between atoms: _349  and  _350
REMARK  142  A    between atoms: _349  and  _352
REMARK  143  A    between atoms: _352  and  _353
REMARK  144  A    between atoms: _353  and  _354
REMARK  145  A    between atoms: _356  and  _358
REMARK  146  A    between atoms: _358  and  _359
REMARK  147  A    between atoms: _358  and  _361
REMARK  148  A    between atoms: _361  and  _362
REMARK  149  A    between atoms: _365  and  _367
REMARK  150  A    between atoms: _367  and  _368
REMARK  151  A    between atoms: _371  and  _373
REMARK  152  A    between atoms: _373  and  _374
REMARK  153  A    between atoms: _376  and  _378
REMARK  154  A    between atoms: _378  and  _379
REMARK  155  A    between atoms: _378  and  _381
REMARK  156  A    between atoms: _381  and  _382
REMARK  157  A    between atoms: _385  and  _387
REMARK  158  A    between atoms: _387  and  _388
REMARK  159  A    between atoms: _390  and  _392
REMARK  160  A    between atoms: _392  and  _393
REMARK  161  A    between atoms: _395  and  _397
REMARK  162  A    between atoms: _397  and  _398
REMARK  163  A    between atoms: _397  and  _400
REMARK  164  A    between atoms: _400  and  _401
REMARK  165  A    between atoms: _407  and  _409
REMARK  166  A    between atoms: _409  and  _410
REMARK  167  A    between atoms: _409  and  _412
REMARK  168  A    between atoms: _415  and  _417
REMARK  169  A    between atoms: _417  and  _418
REMARK  170  A    between atoms: _417  and  _420
REMARK  171  A    between atoms: _423  and  _425
REMARK  172  A    between atoms: _425  and  _426
REMARK  173  A    between atoms: _425  and  _428
REMARK  174  A    between atoms: _428  and  _429
REMARK  175  A    between atoms: _432  and  _434
REMARK  176  A    between atoms: _434  and  _435
REMARK  177  A    between atoms: _434  and  _437
REMARK  178  A    between atoms: _437  and  _438
REMARK  179  A    between atoms: _442  and  _443
REMARK  180  A    between atoms: _448  and  _450
REMARK  181  A    between atoms: _450  and  _451
REMARK  182  A    between atoms: _454  and  _456
REMARK  183  A    between atoms: _456  and  _457
REMARK  184  A    between atoms: _456  and  _459
REMARK  185  A    between atoms: _459  and  _460
REMARK  186  A    between atoms: _465  and  _467
REMARK  187  A    between atoms: _467  and  _468
REMARK  188  A    between atoms: _467  and  _470
REMARK  189  A    between atoms: _473  and  _475
REMARK  190  A    between atoms: _475  and  _476
REMARK  191  A    between atoms: _475  and  _478
REMARK  192  A    between atoms: _478  and  _479
REMARK  193  A    between atoms: _482  and  _484
REMARK  194  A    between atoms: _484  and  _485
REMARK  195  A    between atoms: _487  and  _489
REMARK  196  A    between atoms: _489  and  _490
REMARK  197  A    between atoms: _489  and  _492
REMARK  198  A    between atoms: _492  and  _493
REMARK  199  A    between atoms: _493  and  _494
REMARK  200  A    between atoms: _494  and  _495
REMARK  201  A    between atoms: _504  and  _506
REMARK  202  A    between atoms: _506  and  _507
REMARK  203  A    between atoms: _506  and  _509
REMARK  204  A    between atoms: _509  and  _510
REMARK                            x       y       z     vdW  Elec       q    Type
REMARK                         _______ _______ _______ _____ _____    ______ ____
ROOT
ATOM      1  O   HOH     1      -0.519  -6.414 -15.249  0.00  0.00    +0.000 OA
ENDROOT
TORSDOF 0
REMARK  Name = ../refined-set-2016/3t3c/3t3c_pocket.pdb
REMARK  204 active torsions:
REMARK  status: ('A' for Active; 'I' for Inactive)
REMARK    1  A    between atoms: _1  and  _3
REMARK    2  A    between atoms: _3  and  _4
REMARK    3  A    between atoms: _3  and  _6
REMARK    4  A    between atoms: _6  and  _7
REMARK    5  A    between atoms: _7  and  _8
REMARK    6  A    between atoms: _8  and  _9
REMARK    7  A    between atoms: _18  and  _20
REMARK    8  A    between atoms: _20  and  _21
REMARK    9  A    between atoms: _20  and  _23
REMARK   10  A    between atoms: _23  and  _24
REMARK   11  A    between atoms: _27  and  _29
REMARK   12  A    between atoms: _29  and  _30
REMARK   13  A    between atoms: _29  and  _32
REMARK   14  A    between atoms: _32  and  _33
REMARK   15  A    between atoms: _36  and  _38
REMARK   16  A    between atoms: _38  and  _39
REMARK   17  A    between atoms: _38  and  _41
REMARK   18  A    between atoms: _41  and  _42
REMARK   19  A    between atoms: _45  and  _47
REMARK   20  A    between atoms: _47  and  _48
REMARK   21  A    between atoms: _47  and  _50
REMARK   22  A    between atoms: _50  and  _51
REMARK   23  A    between atoms: _54  and  _56
REMARK   24  A    between atoms: _56  and  _57
REMARK   25  A    between atoms: _59  and  _61
REMARK   26  A    between atoms: _61  and  _62
REMARK   27  A    between atoms: _65  and  _67
REMARK   28  A    between atoms: _67  and  _68
REMARK   29  A    between atoms: _67  and  _70
REMARK   30  A    between atoms: _70  and  _71
REMARK   31  A    between atoms: _74  and  _76
REMARK   32  A    between atoms: _76  and  _77
REMARK   33  A    between atoms: _76  and  _79
REMARK   34  A    between atoms: _79  and  _80
REMARK   35  A    between atoms: _83  and  _85
REMARK   36  A    between atoms: _85  and  _86
REMARK   37  A    between atoms: _85  and  _88
REMARK   38  A    between atoms: _88  and  _89
REMARK   39  A    between atoms: _92  and  _94
REMARK   40  A    between atoms: _94  and  _95
REMARK   41  A    between atoms: _94  and  _97
REMARK   42  A    between atoms: _100  and  _102
REMARK   43  A    between atoms: _102  and  _103
REMARK   44  A    between atoms: _102  and  _105
REMARK   45  A    between atoms: _105  and  _106
REMARK   46  A    between atoms: _109  and  _111
REMARK   47  A    between atoms: _111  and  _112
REMARK   48  A    between atoms: _115  and  _117
REMARK   49  A    between atoms: _117  and  _118
REMARK   50  A    between atoms: _120  and  _122
REMARK   51  A    between atoms: _122  and  _123
REMARK   52  A    between atoms: _122  and  _125
REMARK   53  A    between atoms: _125  and  _126
REMARK   54  A    between atoms: _129  and  _131
REMARK   55  A    between atoms: _131  and  _132
REMARK   56  A    between atoms: _134  and  _136
REMARK   57  A    between atoms: _136  and  _137
REMARK   58  A    between atoms: _139  and  _141
REMARK   59  A    between atoms: _141  and  _142
REMARK   60  A    between atoms: _141  and  _144
REMARK   61  A    between atoms: _147  and  _149
REMARK   62  A    between atoms: _149  and  _150
REMARK   63  A    between atoms: _149  and  _152
REMARK   64  A    between atoms: _152  and  _153
REMARK   65  A    between atoms: _156  and  _158
REMARK   66  A    between atoms: _158  and  _159
REMARK   67  A    between atoms: _158  and  _161
REMARK   68  A    between atoms: _161  and  _162
REMARK   69  A    between atoms: _166  and  _167
REMARK   70  A    between atoms: _172  and  _174
REMARK   71  A    between atoms: _174  and  _175
REMARK   72  A    between atoms: _178  and  _180
REMARK   73  A    between atoms: _180  and  _181
REMARK   74  A    between atoms: _180  and  _183
REMARK   75  A    between atoms: _183  and  _184
REMARK   76  A    between atoms: _189  and  _191
REMARK   77  A    between atoms: _191  and  _192
REMARK   78  A    between atoms: _191  and  _194
REMARK   79  A    between atoms: _197  and  _199
REMARK   80  A    between atoms: _199  and  _200
REMARK   81  A    between atoms: _199  and  _202
REMARK   82  A    between atoms: _202  and  _203
REMARK   83  A    between atoms: _206  and  _208
REMARK   84  A    between atoms: _208  and  _209
REMARK   85  A    between atoms: _211  and  _213
REMARK   86  A    between atoms: _213  and  _214
REMARK   87  A    between atoms: _213  and  _216
REMARK   88  A    between atoms: _216  and  _217
REMARK   89  A    between atoms: _217  and  _218
REMARK   90  A    between atoms: _218  and  _219
REMARK   91  A    between atoms: _228  and  _230
REMARK   92  A    between atoms: _230  and  _231
REMARK   93  A    between atoms: _230  and  _233
REMARK   94  A    between atoms: _233  and  _234
REMARK   95  A    between atoms: _239  and  _241
REMARK   96  A    between atoms: _241  and  _242
REMARK   97  A    between atoms: _241  and  _244
REMARK   98  A    between atoms: _244  and  _245
REMARK   99  A    between atoms: _245  and  _246
REMARK  100  A    between atoms: _246  and  _247
REMARK  101  A    between atoms: _256  and  _258
REMARK  102  A    between atoms: _258  and  _259
REMARK  103  A    between atoms: _258  and  _261
REMARK  104  A    between atoms: _261  and  _262
REMARK  105  A    between atoms: _265  and  _267
REMARK  106  A    between atoms: _267  and  _268
REMARK  107  A    between atoms: _267  and  _270
REMARK  108  A    between atoms: _270  and  _271
REMARK  109  A    between atoms: _274  and  _276
REMARK  110  A    between atoms: _276  and  _277
REMARK  111  A    between atoms: _276  and  _279
REMARK  112  A    between atoms: _279  and  _280
REMARK  113  A    between atoms: _283  and  _285
REMARK  114  A    between atoms: _285  and  _286
REMARK  115  A    between atoms: _285  and  _288
REMARK  116  A    between atoms: _288  and  _289
REMARK  117  A    between atoms: _292  and  _294
REMARK  118  A    between atoms: _294  and  _295
REMARK  119  A    between atoms: _297  and  _299
REMARK  120  A    between atoms: _299  and  _300
REMARK  121  A    between atoms: _303  and  _305
REMARK  122  A    between atoms: _305  and  _306
REMARK  123  A    between atoms: _305  and  _308
REMARK  124  A    between atoms: _308  and  _309
REMARK  125  A    between atoms: _312  and  _314
REMARK  126  A    between atoms: _314  and  _315
REMARK  127  A    between atoms: _314  and  _317
REMARK  128  A    between atoms: _317  and  _318
REMARK  129  A    between atoms: _321  and  _323
REMARK  130  A    between atoms: _323  and  _324
REMARK  131  A    between atoms: _323  and  _326
REMARK  132  A    between atoms: _326  and  _327
REMARK  133  A    between atoms: _330  and  _332
REMARK  134  A    between atoms: _332  and  _333
REMARK  135  A    between atoms: _332  and  _335
REMARK  136  A    between atoms: _338  and  _340
REMARK  137  A    between atoms: _340  and  _341
REMARK  138  A    between atoms: _340  and  _343
REMARK  139  A    between atoms: _343  and  _344
REMARK  140  A    between atoms: _347  and  _349
REMARK  141  A    between atoms: _349  and  _350
REMARK  142  A    between atoms: _349  and  _352
REMARK  143  A    between atoms: _352  and  _353
REMARK  144  A    between atoms: _353  and  _354
REMARK  145  A    between atoms: _356  and  _358
REMARK  146  A    between atoms: _358  and  _359
REMARK  147  A    between atoms: _358  and  _361
REMARK  148  A    between atoms: _361  and  _362
REMARK  149  A    between atoms: _365  and  _367
REMARK  150  A    between atoms: _367  and  _368
REMARK  151  A    between atoms: _371  and  _373
REMARK  152  A    between atoms: _373  and  _374
REMARK  153  A    between atoms: _376  and  _378
REMARK  154  A    between atoms: _378  and  _379
REMARK  155  A    between atoms: _378  and  _381
REMARK  156  A    between atoms: _381  and  _382
REMARK  157  A    between atoms: _385  and  _387
REMARK  158  A    between atoms: _387  and  _388
REMARK  159  A    between atoms: _390  and  _392
REMARK  160  A    between atoms: _392  and  _393
REMARK  161  A    between atoms: _395  and  _397
REMARK  162  A    between atoms: _397  and  _398
REMARK  163  A    between atoms: _397  and  _400
REMARK  164  A    between atoms: _400  and  _401
REMARK  165  A    between atoms: _407  and  _409
REMARK  166  A    between atoms: _409  and  _410
REMARK  167  A    between atoms: _409  and  _412
REMARK  168  A    between atoms: _415  and  _417
REMARK  169  A    between atoms: _417  and  _418
REMARK  170  A    between atoms: _417  and  _420
REMARK  171  A    between atoms: _423  and  _425
REMARK  172  A    between atoms: _425  and  _426
REMARK  173  A    between atoms: _425  and  _428
REMARK  174  A    between atoms: _428  and  _429
REMARK  175  A    between atoms: _432  and  _434
REMARK  176  A    between atoms: _434  and  _435
REMARK  177  A    between atoms: _434  and  _437
REMARK  178  A    between atoms: _437  and  _438
REMARK  179  A    between atoms: _442  and  _443
REMARK  180  A    between atoms: _448  and  _450
REMARK  181  A    between atoms: _450  and  _451
REMARK  182  A    between atoms: _454  and  _456
REMARK  183  A    between atoms: _456  and  _457
REMARK  184  A    between atoms: _456  and  _459
REMARK  185  A    between atoms: _459  and  _460
REMARK  186  A    between atoms: _465  and  _467
REMARK  187  A    between atoms: _467  and  _468
REMARK  188  A    between atoms: _467  and  _470
REMARK  189  A    between atoms: _473  and  _475
REMARK  190  A    between atoms: _475  and  _476
REMARK  191  A    between atoms: _475  and  _478
REMARK  192  A    between atoms: _478  and  _479
REMARK  193  A    between atoms: _482  and  _484
REMARK  194  A    between atoms: _484  and  _485
REMARK  195  A    between atoms: _487  and  _489
REMARK  196  A    between atoms: _489  and  _490
REMARK  197  A    between atoms: _489  and  _492
REMARK  198  A    between atoms: _492  and  _493
REMARK  199  A    between atoms: _493  and  _494
REMARK  200  A    between atoms: _494  and  _495
REMARK  201  A    between atoms: _504  and  _506
REMARK  202  A    between atoms: _506  and  _507
REMARK  203  A    between atoms: _506  and  _509
REMARK  204  A    between atoms: _509  and  _510
REMARK                            x       y       z     vdW  Elec       q    Type
REMARK                         _______ _______ _______ _____ _____    ______ ____
ROOT
ATOM      1  O   HOH     1      -4.080  -5.333 -12.236  0.00  0.00    +0.000 OA
ENDROOT
TORSDOF 0
REMARK  Name = ../refined-set-2016/3t3c/3t3c_pocket.pdb
REMARK  204 active torsions:
REMARK  status: ('A' for Active; 'I' for Inactive)
REMARK    1  A    between atoms: _1  and  _3
REMARK    2  A    between atoms: _3  and  _4
REMARK    3  A    between atoms: _3  and  _6
REMARK    4  A    between atoms: _6  and  _7
REMARK    5  A    between atoms: _7  and  _8
REMARK    6  A    between atoms: _8  and  _9
REMARK    7  A    between atoms: _18  and  _20
REMARK    8  A    between atoms: _20  and  _21
REMARK    9  A    between atoms: _20  and  _23
REMARK   10  A    between atoms: _23  and  _24
REMARK   11  A    between atoms: _27  and  _29
REMARK   12  A    between atoms: _29  and  _30
REMARK   13  A    between atoms: _29  and  _32
REMARK   14  A    between atoms: _32  and  _33
REMARK   15  A    between atoms: _36  and  _38
REMARK   16  A    between atoms: _38  and  _39
REMARK   17  A    between atoms: _38  and  _41
REMARK   18  A    between atoms: _41  and  _42
REMARK   19  A    between atoms: _45  and  _47
REMARK   20  A    between atoms: _47  and  _48
REMARK   21  A    between atoms: _47  and  _50
REMARK   22  A    between atoms: _50  and  _51
REMARK   23  A    between atoms: _54  and  _56
REMARK   24  A    between atoms: _56  and  _57
REMARK   25  A    between atoms: _59  and  _61
REMARK   26  A    between atoms: _61  and  _62
REMARK   27  A    between atoms: _65  and  _67
REMARK   28  A    between atoms: _67  and  _68
REMARK   29  A    between atoms: _67  and  _70
REMARK   30  A    between atoms: _70  and  _71
REMARK   31  A    between atoms: _74  and  _76
REMARK   32  A    between atoms: _76  and  _77
REMARK   33  A    between atoms: _76  and  _79
REMARK   34  A    between atoms: _79  and  _80
REMARK   35  A    between atoms: _83  and  _85
REMARK   36  A    between atoms: _85  and  _86
REMARK   37  A    between atoms: _85  and  _88
REMARK   38  A    between atoms: _88  and  _89
REMARK   39  A    between atoms: _92  and  _94
REMARK   40  A    between atoms: _94  and  _95
REMARK   41  A    between atoms: _94  and  _97
REMARK   42  A    between atoms: _100  and  _102
REMARK   43  A    between atoms: _102  and  _103
REMARK   44  A    between atoms: _102  and  _105
REMARK   45  A    between atoms: _105  and  _106
REMARK   46  A    between atoms: _109  and  _111
REMARK   47  A    between atoms: _111  and  _112
REMARK   48  A    between atoms: _115  and  _117
REMARK   49  A    between atoms: _117  and  _118
REMARK   50  A    between atoms: _120  and  _122
REMARK   51  A    between atoms: _122  and  _123
REMARK   52  A    between atoms: _122  and  _125
REMARK   53  A    between atoms: _125  and  _126
REMARK   54  A    between atoms: _129  and  _131
REMARK   55  A    between atoms: _131  and  _132
REMARK   56  A    between atoms: _134  and  _136
REMARK   57  A    between atoms: _136  and  _137
REMARK   58  A    between atoms: _139  and  _141
REMARK   59  A    between atoms: _141  and  _142
REMARK   60  A    between atoms: _141  and  _144
REMARK   61  A    between atoms: _147  and  _149
REMARK   62  A    between atoms: _149  and  _150
REMARK   63  A    between atoms: _149  and  _152
REMARK   64  A    between atoms: _152  and  _153
REMARK   65  A    between atoms: _156  and  _158
REMARK   66  A    between atoms: _158  and  _159
REMARK   67  A    between atoms: _158  and  _161
REMARK   68  A    between atoms: _161  and  _162
REMARK   69  A    between atoms: _166  and  _167
REMARK   70  A    between atoms: _172  and  _174
REMARK   71  A    between atoms: _174  and  _175
REMARK   72  A    between atoms: _178  and  _180
REMARK   73  A    between atoms: _180  and  _181
REMARK   74  A    between atoms: _180  and  _183
REMARK   75  A    between atoms: _183  and  _184
REMARK   76  A    between atoms: _189  and  _191
REMARK   77  A    between atoms: _191  and  _192
REMARK   78  A    between atoms: _191  and  _194
REMARK   79  A    between atoms: _197  and  _199
REMARK   80  A    between atoms: _199  and  _200
REMARK   81  A    between atoms: _199  and  _202
REMARK   82  A    between atoms: _202  and  _203
REMARK   83  A    between atoms: _206  and  _208
REMARK   84  A    between atoms: _208  and  _209
REMARK   85  A    between atoms: _211  and  _213
REMARK   86  A    between atoms: _213  and  _214
REMARK   87  A    between atoms: _213  and  _216
REMARK   88  A    between atoms: _216  and  _217
REMARK   89  A    between atoms: _217  and  _218
REMARK   90  A    between atoms: _218  and  _219
REMARK   91  A    between atoms: _228  and  _230
REMARK   92  A    between atoms: _230  and  _231
REMARK   93  A    between atoms: _230  and  _233
REMARK   94  A    between atoms: _233  and  _234
REMARK   95  A    between atoms: _239  and  _241
REMARK   96  A    between atoms: _241  and  _242
REMARK   97  A    between atoms: _241  and  _244
REMARK   98  A    between atoms: _244  and  _245
REMARK   99  A    between atoms: _245  and  _246
REMARK  100  A    between atoms: _246  and  _247
REMARK  101  A    between atoms: _256  and  _258
REMARK  102  A    between atoms: _258  and  _259
REMARK  103  A    between atoms: _258  and  _261
REMARK  104  A    between atoms: _261  and  _262
REMARK  105  A    between atoms: _265  and  _267
REMARK  106  A    between atoms: _267  and  _268
REMARK  107  A    between atoms: _267  and  _270
REMARK  108  A    between atoms: _270  and  _271
REMARK  109  A    between atoms: _274  and  _276
REMARK  110  A    between atoms: _276  and  _277
REMARK  111  A    between atoms: _276  and  _279
REMARK  112  A    between atoms: _279  and  _280
REMARK  113  A    between atoms: _283  and  _285
REMARK  114  A    between atoms: _285  and  _286
REMARK  115  A    between atoms: _285  and  _288
REMARK  116  A    between atoms: _288  and  _289
REMARK  117  A    between atoms: _292  and  _294
REMARK  118  A    between atoms: _294  and  _295
REMARK  119  A    between atoms: _297  and  _299
REMARK  120  A    between atoms: _299  and  _300
REMARK  121  A    between atoms: _303  and  _305
REMARK  122  A    between atoms: _305  and  _306
REMARK  123  A    between atoms: _305  and  _308
REMARK  124  A    between atoms: _308  and  _309
REMARK  125  A    between atoms: _312  and  _314
REMARK  126  A    between atoms: _314  and  _315
REMARK  127  A    between atoms: _314  and  _317
REMARK  128  A    between atoms: _317  and  _318
REMARK  129  A    between atoms: _321  and  _323
REMARK  130  A    between atoms: _323  and  _324
REMARK  131  A    between atoms: _323  and  _326
REMARK  132  A    between atoms: _326  and  _327
REMARK  133  A    between atoms: _330  and  _332
REMARK  134  A    between atoms: _332  and  _333
REMARK  135  A    between atoms: _332  and  _335
REMARK  136  A    between atoms: _338  and  _340
REMARK  137  A    between atoms: _340  and  _341
REMARK  138  A    between atoms: _340  and  _343
REMARK  139  A    between atoms: _343  and  _344
REMARK  140  A    between atoms: _347  and  _349
REMARK  141  A    between atoms: _349  and  _350
REMARK  142  A    between atoms: _349  and  _352
REMARK  143  A    between atoms: _352  and  _353
REMARK  144  A    between atoms: _353  and  _354
REMARK  145  A    between atoms: _356  and  _358
REMARK  146  A    between atoms: _358  and  _359
REMARK  147  A    between atoms: _358  and  _361
REMARK  148  A    between atoms: _361  and  _362
REMARK  149  A    between atoms: _365  and  _367
REMARK  150  A    between atoms: _367  and  _368
REMARK  151  A    between atoms: _371  and  _373
REMARK  152  A    between atoms: _373  and  _374
REMARK  153  A    between atoms: _376  and  _378
REMARK  154  A    between atoms: _378  and  _379
REMARK  155  A    between atoms: _378  and  _381
REMARK  156  A    between atoms: _381  and  _382
REMARK  157  A    between atoms: _385  and  _387
REMARK  158  A    between atoms: _387  and  _388
REMARK  159  A    between atoms: _390  and  _392
REMARK  160  A    between atoms: _392  and  _393
REMARK  161  A    between atoms: _395  and  _397
REMARK  162  A    between atoms: _397  and  _398
REMARK  163  A    between atoms: _397  and  _400
REMARK  164  A    between atoms: _400  and  _401
REMARK  165  A    between atoms: _407  and  _409
REMARK  166  A    between atoms: _409  and  _410
REMARK  167  A    between atoms: _409  and  _412
REMARK  168  A    between atoms: _415  and  _417
REMARK  169  A    between atoms: _417  and  _418
REMARK  170  A    between atoms: _417  and  _420
REMARK  171  A    between atoms: _423  and  _425
REMARK  172  A    between atoms: _425  and  _426
REMARK  173  A    between atoms: _425  and  _428
REMARK  174  A    between atoms: _428  and  _429
REMARK  175  A    between atoms: _432  and  _434
REMARK  176  A    between atoms: _434  and  _435
REMARK  177  A    between atoms: _434  and  _437
REMARK  178  A    between atoms: _437  and  _438
REMARK  179  A    between atoms: _442  and  _443
REMARK  180  A    between atoms: _448  and  _450
REMARK  181  A    between atoms: _450  and  _451
REMARK  182  A    between atoms: _454  and  _456
REMARK  183  A    between atoms: _456  and  _457
REMARK  184  A    between atoms: _456  and  _459
REMARK  185  A    between atoms: _459  and  _460
REMARK  186  A    between atoms: _465  and  _467
REMARK  187  A    between atoms: _467  and  _468
REMARK  188  A    between atoms: _467  and  _470
REMARK  189  A    between atoms: _473  and  _475
REMARK  190  A    between atoms: _475  and  _476
REMARK  191  A    between atoms: _475  and  _478
REMARK  192  A    between atoms: _478  and  _479
REMARK  193  A    between atoms: _482  and  _484
REMARK  194  A    between atoms: _484  and  _485
REMARK  195  A    between atoms: _487  and  _489
REMARK  196  A    between atoms: _489  and  _490
REMARK  197  A    between atoms: _489  and  _492
REMARK  198  A    between atoms: _492  and  _493
REMARK  199  A    between atoms: _493  and  _494
REMARK  200  A    between atoms: _494  and  _495
REMARK  201  A    between atoms: _504  and  _506
REMARK  202  A    between atoms: _506  and  _507
REMARK  203  A    between atoms: _506  and  _509
REMARK  204  A    between atoms: _509  and  _510
REMARK                            x       y       z     vdW  Elec       q    Type
REMARK                         _______ _______ _______ _____ _____    ______ ____
ROOT
ATOM      1  O   HOH     1       8.342  -6.347 -10.353  0.00  0.00    +0.000 OA
ENDROOT
TORSDOF 0
REMARK  Name = ../refined-set-2016/3t3c/3t3c_pocket.pdb
REMARK  204 active torsions:
REMARK  status: ('A' for Active; 'I' for Inactive)
REMARK    1  A    between atoms: _1  and  _3
REMARK    2  A    between atoms: _3  and  _4
REMARK    3  A    between atoms: _3  and  _6
REMARK    4  A    between atoms: _6  and  _7
REMARK    5  A    between atoms: _7  and  _8
REMARK    6  A    between atoms: _8  and  _9
REMARK    7  A    between atoms: _18  and  _20
REMARK    8  A    between atoms: _20  and  _21
REMARK    9  A    between atoms: _20  and  _23
REMARK   10  A    between atoms: _23  and  _24
REMARK   11  A    between atoms: _27  and  _29
REMARK   12  A    between atoms: _29  and  _30
REMARK   13  A    between atoms: _29  and  _32
REMARK   14  A    between atoms: _32  and  _33
REMARK   15  A    between atoms: _36  and  _38
REMARK   16  A    between atoms: _38  and  _39
REMARK   17  A    between atoms: _38  and  _41
REMARK   18  A    between atoms: _41  and  _42
REMARK   19  A    between atoms: _45  and  _47
REMARK   20  A    between atoms: _47  and  _48
REMARK   21  A    between atoms: _47  and  _50
REMARK   22  A    between atoms: _50  and  _51
REMARK   23  A    between atoms: _54  and  _56
REMARK   24  A    between atoms: _56  and  _57
REMARK   25  A    between atoms: _59  and  _61
REMARK   26  A    between atoms: _61  and  _62
REMARK   27  A    between atoms: _65  and  _67
REMARK   28  A    between atoms: _67  and  _68
REMARK   29  A    between atoms: _67  and  _70
REMARK   30  A    between atoms: _70  and  _71
REMARK   31  A    between atoms: _74  and  _76
REMARK   32  A    between atoms: _76  and  _77
REMARK   33  A    between atoms: _76  and  _79
REMARK   34  A    between atoms: _79  and  _80
REMARK   35  A    between atoms: _83  and  _85
REMARK   36  A    between atoms: _85  and  _86
REMARK   37  A    between atoms: _85  and  _88
REMARK   38  A    between atoms: _88  and  _89
REMARK   39  A    between atoms: _92  and  _94
REMARK   40  A    between atoms: _94  and  _95
REMARK   41  A    between atoms: _94  and  _97
REMARK   42  A    between atoms: _100  and  _102
REMARK   43  A    between atoms: _102  and  _103
REMARK   44  A    between atoms: _102  and  _105
REMARK   45  A    between atoms: _105  and  _106
REMARK   46  A    between atoms: _109  and  _111
REMARK   47  A    between atoms: _111  and  _112
REMARK   48  A    between atoms: _115  and  _117
REMARK   49  A    between atoms: _117  and  _118
REMARK   50  A    between atoms: _120  and  _122
REMARK   51  A    between atoms: _122  and  _123
REMARK   52  A    between atoms: _122  and  _125
REMARK   53  A    between atoms: _125  and  _126
REMARK   54  A    between atoms: _129  and  _131
REMARK   55  A    between atoms: _131  and  _132
REMARK   56  A    between atoms: _134  and  _136
REMARK   57  A    between atoms: _136  and  _137
REMARK   58  A    between atoms: _139  and  _141
REMARK   59  A    between atoms: _141  and  _142
REMARK   60  A    between atoms: _141  and  _144
REMARK   61  A    between atoms: _147  and  _149
REMARK   62  A    between atoms: _149  and  _150
REMARK   63  A    between atoms: _149  and  _152
REMARK   64  A    between atoms: _152  and  _153
REMARK   65  A    between atoms: _156  and  _158
REMARK   66  A    between atoms: _158  and  _159
REMARK   67  A    between atoms: _158  and  _161
REMARK   68  A    between atoms: _161  and  _162
REMARK   69  A    between atoms: _166  and  _167
REMARK   70  A    between atoms: _172  and  _174
REMARK   71  A    between atoms: _174  and  _175
REMARK   72  A    between atoms: _178  and  _180
REMARK   73  A    between atoms: _180  and  _181
REMARK   74  A    between atoms: _180  and  _183
REMARK   75  A    between atoms: _183  and  _184
REMARK   76  A    between atoms: _189  and  _191
REMARK   77  A    between atoms: _191  and  _192
REMARK   78  A    between atoms: _191  and  _194
REMARK   79  A    between atoms: _197  and  _199
REMARK   80  A    between atoms: _199  and  _200
REMARK   81  A    between atoms: _199  and  _202
REMARK   82  A    between atoms: _202  and  _203
REMARK   83  A    between atoms: _206  and  _208
REMARK   84  A    between atoms: _208  and  _209
REMARK   85  A    between atoms: _211  and  _213
REMARK   86  A    between atoms: _213  and  _214
REMARK   87  A    between atoms: _213  and  _216
REMARK   88  A    between atoms: _216  and  _217
REMARK   89  A    between atoms: _217  and  _218
REMARK   90  A    between atoms: _218  and  _219
REMARK   91  A    between atoms: _228  and  _230
REMARK   92  A    between atoms: _230  and  _231
REMARK   93  A    between atoms: _230  and  _233
REMARK   94  A    between atoms: _233  and  _234
REMARK   95  A    between atoms: _239  and  _241
REMARK   96  A    between atoms: _241  and  _242
REMARK   97  A    between atoms: _241  and  _244
REMARK   98  A    between atoms: _244  and  _245
REMARK   99  A    between atoms: _245  and  _246
REMARK  100  A    between atoms: _246  and  _247
REMARK  101  A    between atoms: _256  and  _258
REMARK  102  A    between atoms: _258  and  _259
REMARK  103  A    between atoms: _258  and  _261
REMARK  104  A    between atoms: _261  and  _262
REMARK  105  A    between atoms: _265  and  _267
REMARK  106  A    between atoms: _267  and  _268
REMARK  107  A    between atoms: _267  and  _270
REMARK  108  A    between atoms: _270  and  _271
REMARK  109  A    between atoms: _274  and  _276
REMARK  110  A    between atoms: _276  and  _277
REMARK  111  A    between atoms: _276  and  _279
REMARK  112  A    between atoms: _279  and  _280
REMARK  113  A    between atoms: _283  and  _285
REMARK  114  A    between atoms: _285  and  _286
REMARK  115  A    between atoms: _285  and  _288
REMARK  116  A    between atoms: _288  and  _289
REMARK  117  A    between atoms: _292  and  _294
REMARK  118  A    between atoms: _294  and  _295
REMARK  119  A    between atoms: _297  and  _299
REMARK  120  A    between atoms: _299  and  _300
REMARK  121  A    between atoms: _303  and  _305
REMARK  122  A    between atoms: _305  and  _306
REMARK  123  A    between atoms: _305  and  _308
REMARK  124  A    between atoms: _308  and  _309
REMARK  125  A    between atoms: _312  and  _314
REMARK  126  A    between atoms: _314  and  _315
REMARK  127  A    between atoms: _314  and  _317
REMARK  128  A    between atoms: _317  and  _318
REMARK  129  A    between atoms: _321  and  _323
REMARK  130  A    between atoms: _323  and  _324
REMARK  131  A    between atoms: _323  and  _326
REMARK  132  A    between atoms: _326  and  _327
REMARK  133  A    between atoms: _330  and  _332
REMARK  134  A    between atoms: _332  and  _333
REMARK  135  A    between atoms: _332  and  _335
REMARK  136  A    between atoms: _338  and  _340
REMARK  137  A    between atoms: _340  and  _341
REMARK  138  A    between atoms: _340  and  _343
REMARK  139  A    between atoms: _343  and  _344
REMARK  140  A    between atoms: _347  and  _349
REMARK  141  A    between atoms: _349  and  _350
REMARK  142  A    between atoms: _349  and  _352
REMARK  143  A    between atoms: _352  and  _353
REMARK  144  A    between atoms: _353  and  _354
REMARK  145  A    between atoms: _356  and  _358
REMARK  146  A    between atoms: _358  and  _359
REMARK  147  A    between atoms: _358  and  _361
REMARK  148  A    between atoms: _361  and  _362
REMARK  149  A    between atoms: _365  and  _367
REMARK  150  A    between atoms: _367  and  _368
REMARK  151  A    between atoms: _371  and  _373
REMARK  152  A    between atoms: _373  and  _374
REMARK  153  A    between atoms: _376  and  _378
REMARK  154  A    between atoms: _378  and  _379
REMARK  155  A    between atoms: _378  and  _381
REMARK  156  A    between atoms: _381  and  _382
REMARK  157  A    between atoms: _385  and  _387
REMARK  158  A    between atoms: _387  and  _388
REMARK  159  A    between atoms: _390  and  _392
REMARK  160  A    between atoms: _392  and  _393
REMARK  161  A    between atoms: _395  and  _397
REMARK  162  A    between atoms: _397  and  _398
REMARK  163  A    between atoms: _397  and  _400
REMARK  164  A    between atoms: _400  and  _401
REMARK  165  A    between atoms: _407  and  _409
REMARK  166  A    between atoms: _409  and  _410
REMARK  167  A    between atoms: _409  and  _412
REMARK  168  A    between atoms: _415  and  _417
REMARK  169  A    between atoms: _417  and  _418
REMARK  170  A    between atoms: _417  and  _420
REMARK  171  A    between atoms: _423  and  _425
REMARK  172  A    between atoms: _425  and  _426
REMARK  173  A    between atoms: _425  and  _428
REMARK  174  A    between atoms: _428  and  _429
REMARK  175  A    between atoms: _432  and  _434
REMARK  176  A    between atoms: _434  and  _435
REMARK  177  A    between atoms: _434  and  _437
REMARK  178  A    between atoms: _437  and  _438
REMARK  179  A    between atoms: _442  and  _443
REMARK  180  A    between atoms: _448  and  _450
REMARK  181  A    between atoms: _450  and  _451
REMARK  182  A    between atoms: _454  and  _456
REMARK  183  A    between atoms: _456  and  _457
REMARK  184  A    between atoms: _456  and  _459
REMARK  185  A    between atoms: _459  and  _460
REMARK  186  A    between atoms: _465  and  _467
REMARK  187  A    between atoms: _467  and  _468
REMARK  188  A    between atoms: _467  and  _470
REMARK  189  A    between atoms: _473  and  _475
REMARK  190  A    between atoms: _475  and  _476
REMARK  191  A    between atoms: _475  and  _478
REMARK  192  A    between atoms: _478  and  _479
REMARK  193  A    between atoms: _482  and  _484
REMARK  194  A    between atoms: _484  and  _485
REMARK  195  A    between atoms: _487  and  _489
REMARK  196  A    between atoms: _489  and  _490
REMARK  197  A    between atoms: _489  and  _492
REMARK  198  A    between atoms: _492  and  _493
REMARK  199  A    between atoms: _493  and  _494
REMARK  200  A    between atoms: _494  and  _495
REMARK  201  A    between atoms: _504  and  _506
REMARK  202  A    between atoms: _506  and  _507
REMARK  203  A    between atoms: _506  and  _509
REMARK  204  A    between atoms: _509  and  _510
REMARK                            x       y       z     vdW  Elec       q    Type
REMARK                         _______ _______ _______ _____ _____    ______ ____
ROOT
ATOM      1  O   HOH     1       7.143  -7.469 -12.517  0.00  0.00    +0.000 OA
ENDROOT
TORSDOF 0
REMARK  Name = ../refined-set-2016/3t3c/3t3c_pocket.pdb
REMARK  204 active torsions:
REMARK  status: ('A' for Active; 'I' for Inactive)
REMARK    1  A    between atoms: _1  and  _3
REMARK    2  A    between atoms: _3  and  _4
REMARK    3  A    between atoms: _3  and  _6
REMARK    4  A    between atoms: _6  and  _7
REMARK    5  A    between atoms: _7  and  _8
REMARK    6  A    between atoms: _8  and  _9
REMARK    7  A    between atoms: _18  and  _20
REMARK    8  A    between atoms: _20  and  _21
REMARK    9  A    between atoms: _20  and  _23
REMARK   10  A    between atoms: _23  and  _24
REMARK   11  A    between atoms: _27  and  _29
REMARK   12  A    between atoms: _29  and  _30
REMARK   13  A    between atoms: _29  and  _32
REMARK   14  A    between atoms: _32  and  _33
REMARK   15  A    between atoms: _36  and  _38
REMARK   16  A    between atoms: _38  and  _39
REMARK   17  A    between atoms: _38  and  _41
REMARK   18  A    between atoms: _41  and  _42
REMARK   19  A    between atoms: _45  and  _47
REMARK   20  A    between atoms: _47  and  _48
REMARK   21  A    between atoms: _47  and  _50
REMARK   22  A    between atoms: _50  and  _51
REMARK   23  A    between atoms: _54  and  _56
REMARK   24  A    between atoms: _56  and  _57
REMARK   25  A    between atoms: _59  and  _61
REMARK   26  A    between atoms: _61  and  _62
REMARK   27  A    between atoms: _65  and  _67
REMARK   28  A    between atoms: _67  and  _68
REMARK   29  A    between atoms: _67  and  _70
REMARK   30  A    between atoms: _70  and  _71
REMARK   31  A    between atoms: _74  and  _76
REMARK   32  A    between atoms: _76  and  _77
REMARK   33  A    between atoms: _76  and  _79
REMARK   34  A    between atoms: _79  and  _80
REMARK   35  A    between atoms: _83  and  _85
REMARK   36  A    between atoms: _85  and  _86
REMARK   37  A    between atoms: _85  and  _88
REMARK   38  A    between atoms: _88  and  _89
REMARK   39  A    between atoms: _92  and  _94
REMARK   40  A    between atoms: _94  and  _95
REMARK   41  A    between atoms: _94  and  _97
REMARK   42  A    between atoms: _100  and  _102
REMARK   43  A    between atoms: _102  and  _103
REMARK   44  A    between atoms: _102  and  _105
REMARK   45  A    between atoms: _105  and  _106
REMARK   46  A    between atoms: _109  and  _111
REMARK   47  A    between atoms: _111  and  _112
REMARK   48  A    between atoms: _115  and  _117
REMARK   49  A    between atoms: _117  and  _118
REMARK   50  A    between atoms: _120  and  _122
REMARK   51  A    between atoms: _122  and  _123
REMARK   52  A    between atoms: _122  and  _125
REMARK   53  A    between atoms: _125  and  _126
REMARK   54  A    between atoms: _129  and  _131
REMARK   55  A    between atoms: _131  and  _132
REMARK   56  A    between atoms: _134  and  _136
REMARK   57  A    between atoms: _136  and  _137
REMARK   58  A    between atoms: _139  and  _141
REMARK   59  A    between atoms: _141  and  _142
REMARK   60  A    between atoms: _141  and  _144
REMARK   61  A    between atoms: _147  and  _149
REMARK   62  A    between atoms: _149  and  _150
REMARK   63  A    between atoms: _149  and  _152
REMARK   64  A    between atoms: _152  and  _153
REMARK   65  A    between atoms: _156  and  _158
REMARK   66  A    between atoms: _158  and  _159
REMARK   67  A    between atoms: _158  and  _161
REMARK   68  A    between atoms: _161  and  _162
REMARK   69  A    between atoms: _166  and  _167
REMARK   70  A    between atoms: _172  and  _174
REMARK   71  A    between atoms: _174  and  _175
REMARK   72  A    between atoms: _178  and  _180
REMARK   73  A    between atoms: _180  and  _181
REMARK   74  A    between atoms: _180  and  _183
REMARK   75  A    between atoms: _183  and  _184
REMARK   76  A    between atoms: _189  and  _191
REMARK   77  A    between atoms: _191  and  _192
REMARK   78  A    between atoms: _191  and  _194
REMARK   79  A    between atoms: _197  and  _199
REMARK   80  A    between atoms: _199  and  _200
REMARK   81  A    between atoms: _199  and  _202
REMARK   82  A    between atoms: _202  and  _203
REMARK   83  A    between atoms: _206  and  _208
REMARK   84  A    between atoms: _208  and  _209
REMARK   85  A    between atoms: _211  and  _213
REMARK   86  A    between atoms: _213  and  _214
REMARK   87  A    between atoms: _213  and  _216
REMARK   88  A    between atoms: _216  and  _217
REMARK   89  A    between atoms: _217  and  _218
REMARK   90  A    between atoms: _218  and  _219
REMARK   91  A    between atoms: _228  and  _230
REMARK   92  A    between atoms: _230  and  _231
REMARK   93  A    between atoms: _230  and  _233
REMARK   94  A    between atoms: _233  and  _234
REMARK   95  A    between atoms: _239  and  _241
REMARK   96  A    between atoms: _241  and  _242
REMARK   97  A    between atoms: _241  and  _244
REMARK   98  A    between atoms: _244  and  _245
REMARK   99  A    between atoms: _245  and  _246
REMARK  100  A    between atoms: _246  and  _247
REMARK  101  A    between atoms: _256  and  _258
REMARK  102  A    between atoms: _258  and  _259
REMARK  103  A    between atoms: _258  and  _261
REMARK  104  A    between atoms: _261  and  _262
REMARK  105  A    between atoms: _265  and  _267
REMARK  106  A    between atoms: _267  and  _268
REMARK  107  A    between atoms: _267  and  _270
REMARK  108  A    between atoms: _270  and  _271
REMARK  109  A    between atoms: _274  and  _276
REMARK  110  A    between atoms: _276  and  _277
REMARK  111  A    between atoms: _276  and  _279
REMARK  112  A    between atoms: _279  and  _280
REMARK  113  A    between atoms: _283  and  _285
REMARK  114  A    between atoms: _285  and  _286
REMARK  115  A    between atoms: _285  and  _288
REMARK  116  A    between atoms: _288  and  _289
REMARK  117  A    between atoms: _292  and  _294
REMARK  118  A    between atoms: _294  and  _295
REMARK  119  A    between atoms: _297  and  _299
REMARK  120  A    between atoms: _299  and  _300
REMARK  121  A    between atoms: _303  and  _305
REMARK  122  A    between atoms: _305  and  _306
REMARK  123  A    between atoms: _305  and  _308
REMARK  124  A    between atoms: _308  and  _309
REMARK  125  A    between atoms: _312  and  _314
REMARK  126  A    between atoms: _314  and  _315
REMARK  127  A    between atoms: _314  and  _317
REMARK  128  A    between atoms: _317  and  _318
REMARK  129  A    between atoms: _321  and  _323
REMARK  130  A    between atoms: _323  and  _324
REMARK  131  A    between atoms: _323  and  _326
REMARK  132  A    between atoms: _326  and  _327
REMARK  133  A    between atoms: _330  and  _332
REMARK  134  A    between atoms: _332  and  _333
REMARK  135  A    between atoms: _332  and  _335
REMARK  136  A    between atoms: _338  and  _340
REMARK  137  A    between atoms: _340  and  _341
REMARK  138  A    between atoms: _340  and  _343
REMARK  139  A    between atoms: _343  and  _344
REMARK  140  A    between atoms: _347  and  _349
REMARK  141  A    between atoms: _349  and  _350
REMARK  142  A    between atoms: _349  and  _352
REMARK  143  A    between atoms: _352  and  _353
REMARK  144  A    between atoms: _353  and  _354
REMARK  145  A    between atoms: _356  and  _358
REMARK  146  A    between atoms: _358  and  _359
REMARK  147  A    between atoms: _358  and  _361
REMARK  148  A    between atoms: _361  and  _362
REMARK  149  A    between atoms: _365  and  _367
REMARK  150  A    between atoms: _367  and  _368
REMARK  151  A    between atoms: _371  and  _373
REMARK  152  A    between atoms: _373  and  _374
REMARK  153  A    between atoms: _376  and  _378
REMARK  154  A    between atoms: _378  and  _379
REMARK  155  A    between atoms: _378  and  _381
REMARK  156  A    between atoms: _381  and  _382
REMARK  157  A    between atoms: _385  and  _387
REMARK  158  A    between atoms: _387  and  _388
REMARK  159  A    between atoms: _390  and  _392
REMARK  160  A    between atoms: _392  and  _393
REMARK  161  A    between atoms: _395  and  _397
REMARK  162  A    between atoms: _397  and  _398
REMARK  163  A    between atoms: _397  and  _400
REMARK  164  A    between atoms: _400  and  _401
REMARK  165  A    between atoms: _407  and  _409
REMARK  166  A    between atoms: _409  and  _410
REMARK  167  A    between atoms: _409  and  _412
REMARK  168  A    between atoms: _415  and  _417
REMARK  169  A    between atoms: _417  and  _418
REMARK  170  A    between atoms: _417  and  _420
REMARK  171  A    between atoms: _423  and  _425
REMARK  172  A    between atoms: _425  and  _426
REMARK  173  A    between atoms: _425  and  _428
REMARK  174  A    between atoms: _428  and  _429
REMARK  175  A    between atoms: _432  and  _434
REMARK  176  A    between atoms: _434  and  _435
REMARK  177  A    between atoms: _434  and  _437
REMARK  178  A    between atoms: _437  and  _438
REMARK  179  A    between atoms: _442  and  _443
REMARK  180  A    between atoms: _448  and  _450
REMARK  181  A    between atoms: _450  and  _451
REMARK  182  A    between atoms: _454  and  _456
REMARK  183  A    between atoms: _456  and  _457
REMARK  184  A    between atoms: _456  and  _459
REMARK  185  A    between atoms: _459  and  _460
REMARK  186  A    between atoms: _465  and  _467
REMARK  187  A    between atoms: _467  and  _468
REMARK  188  A    between atoms: _467  and  _470
REMARK  189  A    between atoms: _473  and  _475
REMARK  190  A    between atoms: _475  and  _476
REMARK  191  A    between atoms: _475  and  _478
REMARK  192  A    between atoms: _478  and  _479
REMARK  193  A    between atoms: _482  and  _484
REMARK  194  A    between atoms: _484  and  _485
REMARK  195  A    between atoms: _487  and  _489
REMARK  196  A    between atoms: _489  and  _490
REMARK  197  A    between atoms: _489  and  _492
REMARK  198  A    between atoms: _492  and  _493
REMARK  199  A    between atoms: _493  and  _494
REMARK  200  A    between atoms: _494  and  _495
REMARK  201  A    between atoms: _504  and  _506
REMARK  202  A    between atoms: _506  and  _507
REMARK  203  A    between atoms: _506  and  _509
REMARK  204  A    between atoms: _509  and  _510
REMARK                            x       y       z     vdW  Elec       q    Type
REMARK                         _______ _______ _______ _____ _____    ______ ____
ROOT
ATOM      1  O   HOH     1       3.977  -7.866  -9.175  0.00  0.00    +0.000 OA
ENDROOT
TORSDOF 0
REMARK  Name = ../refined-set-2016/3t3c/3t3c_pocket.pdb
REMARK  204 active torsions:
REMARK  status: ('A' for Active; 'I' for Inactive)
REMARK    1  A    between atoms: _1  and  _3
REMARK    2  A    between atoms: _3  and  _4
REMARK    3  A    between atoms: _3  and  _6
REMARK    4  A    between atoms: _6  and  _7
REMARK    5  A    between atoms: _7  and  _8
REMARK    6  A    between atoms: _8  and  _9
REMARK    7  A    between atoms: _18  and  _20
REMARK    8  A    between atoms: _20  and  _21
REMARK    9  A    between atoms: _20  and  _23
REMARK   10  A    between atoms: _23  and  _24
REMARK   11  A    between atoms: _27  and  _29
REMARK   12  A    between atoms: _29  and  _30
REMARK   13  A    between atoms: _29  and  _32
REMARK   14  A    between atoms: _32  and  _33
REMARK   15  A    between atoms: _36  and  _38
REMARK   16  A    between atoms: _38  and  _39
REMARK   17  A    between atoms: _38  and  _41
REMARK   18  A    between atoms: _41  and  _42
REMARK   19  A    between atoms: _45  and  _47
REMARK   20  A    between atoms: _47  and  _48
REMARK   21  A    between atoms: _47  and  _50
REMARK   22  A    between atoms: _50  and  _51
REMARK   23  A    between atoms: _54  and  _56
REMARK   24  A    between atoms: _56  and  _57
REMARK   25  A    between atoms: _59  and  _61
REMARK   26  A    between atoms: _61  and  _62
REMARK   27  A    between atoms: _65  and  _67
REMARK   28  A    between atoms: _67  and  _68
REMARK   29  A    between atoms: _67  and  _70
REMARK   30  A    between atoms: _70  and  _71
REMARK   31  A    between atoms: _74  and  _76
REMARK   32  A    between atoms: _76  and  _77
REMARK   33  A    between atoms: _76  and  _79
REMARK   34  A    between atoms: _79  and  _80
REMARK   35  A    between atoms: _83  and  _85
REMARK   36  A    between atoms: _85  and  _86
REMARK   37  A    between atoms: _85  and  _88
REMARK   38  A    between atoms: _88  and  _89
REMARK   39  A    between atoms: _92  and  _94
REMARK   40  A    between atoms: _94  and  _95
REMARK   41  A    between atoms: _94  and  _97
REMARK   42  A    between atoms: _100  and  _102
REMARK   43  A    between atoms: _102  and  _103
REMARK   44  A    between atoms: _102  and  _105
REMARK   45  A    between atoms: _105  and  _106
REMARK   46  A    between atoms: _109  and  _111
REMARK   47  A    between atoms: _111  and  _112
REMARK   48  A    between atoms: _115  and  _117
REMARK   49  A    between atoms: _117  and  _118
REMARK   50  A    between atoms: _120  and  _122
REMARK   51  A    between atoms: _122  and  _123
REMARK   52  A    between atoms: _122  and  _125
REMARK   53  A    between atoms: _125  and  _126
REMARK   54  A    between atoms: _129  and  _131
REMARK   55  A    between atoms: _131  and  _132
REMARK   56  A    between atoms: _134  and  _136
REMARK   57  A    between atoms: _136  and  _137
REMARK   58  A    between atoms: _139  and  _141
REMARK   59  A    between atoms: _141  and  _142
REMARK   60  A    between atoms: _141  and  _144
REMARK   61  A    between atoms: _147  and  _149
REMARK   62  A    between atoms: _149  and  _150
REMARK   63  A    between atoms: _149  and  _152
REMARK   64  A    between atoms: _152  and  _153
REMARK   65  A    between atoms: _156  and  _158
REMARK   66  A    between atoms: _158  and  _159
REMARK   67  A    between atoms: _158  and  _161
REMARK   68  A    between atoms: _161  and  _162
REMARK   69  A    between atoms: _166  and  _167
REMARK   70  A    between atoms: _172  and  _174
REMARK   71  A    between atoms: _174  and  _175
REMARK   72  A    between atoms: _178  and  _180
REMARK   73  A    between atoms: _180  and  _181
REMARK   74  A    between atoms: _180  and  _183
REMARK   75  A    between atoms: _183  and  _184
REMARK   76  A    between atoms: _189  and  _191
REMARK   77  A    between atoms: _191  and  _192
REMARK   78  A    between atoms: _191  and  _194
REMARK   79  A    between atoms: _197  and  _199
REMARK   80  A    between atoms: _199  and  _200
REMARK   81  A    between atoms: _199  and  _202
REMARK   82  A    between atoms: _202  and  _203
REMARK   83  A    between atoms: _206  and  _208
REMARK   84  A    between atoms: _208  and  _209
REMARK   85  A    between atoms: _211  and  _213
REMARK   86  A    between atoms: _213  and  _214
REMARK   87  A    between atoms: _213  and  _216
REMARK   88  A    between atoms: _216  and  _217
REMARK   89  A    between atoms: _217  and  _218
REMARK   90  A    between atoms: _218  and  _219
REMARK   91  A    between atoms: _228  and  _230
REMARK   92  A    between atoms: _230  and  _231
REMARK   93  A    between atoms: _230  and  _233
REMARK   94  A    between atoms: _233  and  _234
REMARK   95  A    between atoms: _239  and  _241
REMARK   96  A    between atoms: _241  and  _242
REMARK   97  A    between atoms: _241  and  _244
REMARK   98  A    between atoms: _244  and  _245
REMARK   99  A    between atoms: _245  and  _246
REMARK  100  A    between atoms: _246  and  _247
REMARK  101  A    between atoms: _256  and  _258
REMARK  102  A    between atoms: _258  and  _259
REMARK  103  A    between atoms: _258  and  _261
REMARK  104  A    between atoms: _261  and  _262
REMARK  105  A    between atoms: _265  and  _267
REMARK  106  A    between atoms: _267  and  _268
REMARK  107  A    between atoms: _267  and  _270
REMARK  108  A    between atoms: _270  and  _271
REMARK  109  A    between atoms: _274  and  _276
REMARK  110  A    between atoms: _276  and  _277
REMARK  111  A    between atoms: _276  and  _279
REMARK  112  A    between atoms: _279  and  _280
REMARK  113  A    between atoms: _283  and  _285
REMARK  114  A    between atoms: _285  and  _286
REMARK  115  A    between atoms: _285  and  _288
REMARK  116  A    between atoms: _288  and  _289
REMARK  117  A    between atoms: _292  and  _294
REMARK  118  A    between atoms: _294  and  _295
REMARK  119  A    between atoms: _297  and  _299
REMARK  120  A    between atoms: _299  and  _300
REMARK  121  A    between atoms: _303  and  _305
REMARK  122  A    between atoms: _305  and  _306
REMARK  123  A    between atoms: _305  and  _308
REMARK  124  A    between atoms: _308  and  _309
REMARK  125  A    between atoms: _312  and  _314
REMARK  126  A    between atoms: _314  and  _315
REMARK  127  A    between atoms: _314  and  _317
REMARK  128  A    between atoms: _317  and  _318
REMARK  129  A    between atoms: _321  and  _323
REMARK  130  A    between atoms: _323  and  _324
REMARK  131  A    between atoms: _323  and  _326
REMARK  132  A    between atoms: _326  and  _327
REMARK  133  A    between atoms: _330  and  _332
REMARK  134  A    between atoms: _332  and  _333
REMARK  135  A    between atoms: _332  and  _335
REMARK  136  A    between atoms: _338  and  _340
REMARK  137  A    between atoms: _340  and  _341
REMARK  138  A    between atoms: _340  and  _343
REMARK  139  A    between atoms: _343  and  _344
REMARK  140  A    between atoms: _347  and  _349
REMARK  141  A    between atoms: _349  and  _350
REMARK  142  A    between atoms: _349  and  _352
REMARK  143  A    between atoms: _352  and  _353
REMARK  144  A    between atoms: _353  and  _354
REMARK  145  A    between atoms: _356  and  _358
REMARK  146  A    between atoms: _358  and  _359
REMARK  147  A    between atoms: _358  and  _361
REMARK  148  A    between atoms: _361  and  _362
REMARK  149  A    between atoms: _365  and  _367
REMARK  150  A    between atoms: _367  and  _368
REMARK  151  A    between atoms: _371  and  _373
REMARK  152  A    between atoms: _373  and  _374
REMARK  153  A    between atoms: _376  and  _378
REMARK  154  A    between atoms: _378  and  _379
REMARK  155  A    between atoms: _378  and  _381
REMARK  156  A    between atoms: _381  and  _382
REMARK  157  A    between atoms: _385  and  _387
REMARK  158  A    between atoms: _387  and  _388
REMARK  159  A    between atoms: _390  and  _392
REMARK  160  A    between atoms: _392  and  _393
REMARK  161  A    between atoms: _395  and  _397
REMARK  162  A    between atoms: _397  and  _398
REMARK  163  A    between atoms: _397  and  _400
REMARK  164  A    between atoms: _400  and  _401
REMARK  165  A    between atoms: _407  and  _409
REMARK  166  A    between atoms: _409  and  _410
REMARK  167  A    between atoms: _409  and  _412
REMARK  168  A    between atoms: _415  and  _417
REMARK  169  A    between atoms: _417  and  _418
REMARK  170  A    between atoms: _417  and  _420
REMARK  171  A    between atoms: _423  and  _425
REMARK  172  A    between atoms: _425  and  _426
REMARK  173  A    between atoms: _425  and  _428
REMARK  174  A    between atoms: _428  and  _429
REMARK  175  A    between atoms: _432  and  _434
REMARK  176  A    between atoms: _434  and  _435
REMARK  177  A    between atoms: _434  and  _437
REMARK  178  A    between atoms: _437  and  _438
REMARK  179  A    between atoms: _442  and  _443
REMARK  180  A    between atoms: _448  and  _450
REMARK  181  A    between atoms: _450  and  _451
REMARK  182  A    between atoms: _454  and  _456
REMARK  183  A    between atoms: _456  and  _457
REMARK  184  A    between atoms: _456  and  _459
REMARK  185  A    between atoms: _459  and  _460
REMARK  186  A    between atoms: _465  and  _467
REMARK  187  A    between atoms: _467  and  _468
REMARK  188  A    between atoms: _467  and  _470
REMARK  189  A    between atoms: _473  and  _475
REMARK  190  A    between atoms: _475  and  _476
REMARK  191  A    between atoms: _475  and  _478
REMARK  192  A    between atoms: _478  and  _479
REMARK  193  A    between atoms: _482  and  _484
REMARK  194  A    between atoms: _484  and  _485
REMARK  195  A    between atoms: _487  and  _489
REMARK  196  A    between atoms: _489  and  _490
REMARK  197  A    between atoms: _489  and  _492
REMARK  198  A    between atoms: _492  and  _493
REMARK  199  A    between atoms: _493  and  _494
REMARK  200  A    between atoms: _494  and  _495
REMARK  201  A    between atoms: _504  and  _506
REMARK  202  A    between atoms: _506  and  _507
REMARK  203  A    between atoms: _506  and  _509
REMARK  204  A    between atoms: _509  and  _510
REMARK                            x       y       z     vdW  Elec       q    Type
REMARK                         _______ _______ _______ _____ _____    ______ ____
ROOT
ATOM      1  O   HOH     1       3.288  -9.412 -16.381  0.00  0.00    +0.000 OA
ENDROOT
TORSDOF 0
REMARK  Name = ../refined-set-2016/3t3c/3t3c_pocket.pdb
REMARK  204 active torsions:
REMARK  status: ('A' for Active; 'I' for Inactive)
REMARK    1  A    between atoms: _1  and  _3
REMARK    2  A    between atoms: _3  and  _4
REMARK    3  A    between atoms: _3  and  _6
REMARK    4  A    between atoms: _6  and  _7
REMARK    5  A    between atoms: _7  and  _8
REMARK    6  A    between atoms: _8  and  _9
REMARK    7  A    between atoms: _18  and  _20
REMARK    8  A    between atoms: _20  and  _21
REMARK    9  A    between atoms: _20  and  _23
REMARK   10  A    between atoms: _23  and  _24
REMARK   11  A    between atoms: _27  and  _29
REMARK   12  A    between atoms: _29  and  _30
REMARK   13  A    between atoms: _29  and  _32
REMARK   14  A    between atoms: _32  and  _33
REMARK   15  A    between atoms: _36  and  _38
REMARK   16  A    between atoms: _38  and  _39
REMARK   17  A    between atoms: _38  and  _41
REMARK   18  A    between atoms: _41  and  _42
REMARK   19  A    between atoms: _45  and  _47
REMARK   20  A    between atoms: _47  and  _48
REMARK   21  A    between atoms: _47  and  _50
REMARK   22  A    between atoms: _50  and  _51
REMARK   23  A    between atoms: _54  and  _56
REMARK   24  A    between atoms: _56  and  _57
REMARK   25  A    between atoms: _59  and  _61
REMARK   26  A    between atoms: _61  and  _62
REMARK   27  A    between atoms: _65  and  _67
REMARK   28  A    between atoms: _67  and  _68
REMARK   29  A    between atoms: _67  and  _70
REMARK   30  A    between atoms: _70  and  _71
REMARK   31  A    between atoms: _74  and  _76
REMARK   32  A    between atoms: _76  and  _77
REMARK   33  A    between atoms: _76  and  _79
REMARK   34  A    between atoms: _79  and  _80
REMARK   35  A    between atoms: _83  and  _85
REMARK   36  A    between atoms: _85  and  _86
REMARK   37  A    between atoms: _85  and  _88
REMARK   38  A    between atoms: _88  and  _89
REMARK   39  A    between atoms: _92  and  _94
REMARK   40  A    between atoms: _94  and  _95
REMARK   41  A    between atoms: _94  and  _97
REMARK   42  A    between atoms: _100  and  _102
REMARK   43  A    between atoms: _102  and  _103
REMARK   44  A    between atoms: _102  and  _105
REMARK   45  A    between atoms: _105  and  _106
REMARK   46  A    between atoms: _109  and  _111
REMARK   47  A    between atoms: _111  and  _112
REMARK   48  A    between atoms: _115  and  _117
REMARK   49  A    between atoms: _117  and  _118
REMARK   50  A    between atoms: _120  and  _122
REMARK   51  A    between atoms: _122  and  _123
REMARK   52  A    between atoms: _122  and  _125
REMARK   53  A    between atoms: _125  and  _126
REMARK   54  A    between atoms: _129  and  _131
REMARK   55  A    between atoms: _131  and  _132
REMARK   56  A    between atoms: _134  and  _136
REMARK   57  A    between atoms: _136  and  _137
REMARK   58  A    between atoms: _139  and  _141
REMARK   59  A    between atoms: _141  and  _142
REMARK   60  A    between atoms: _141  and  _144
REMARK   61  A    between atoms: _147  and  _149
REMARK   62  A    between atoms: _149  and  _150
REMARK   63  A    between atoms: _149  and  _152
REMARK   64  A    between atoms: _152  and  _153
REMARK   65  A    between atoms: _156  and  _158
REMARK   66  A    between atoms: _158  and  _159
REMARK   67  A    between atoms: _158  and  _161
REMARK   68  A    between atoms: _161  and  _162
REMARK   69  A    between atoms: _166  and  _167
REMARK   70  A    between atoms: _172  and  _174
REMARK   71  A    between atoms: _174  and  _175
REMARK   72  A    between atoms: _178  and  _180
REMARK   73  A    between atoms: _180  and  _181
REMARK   74  A    between atoms: _180  and  _183
REMARK   75  A    between atoms: _183  and  _184
REMARK   76  A    between atoms: _189  and  _191
REMARK   77  A    between atoms: _191  and  _192
REMARK   78  A    between atoms: _191  and  _194
REMARK   79  A    between atoms: _197  and  _199
REMARK   80  A    between atoms: _199  and  _200
REMARK   81  A    between atoms: _199  and  _202
REMARK   82  A    between atoms: _202  and  _203
REMARK   83  A    between atoms: _206  and  _208
REMARK   84  A    between atoms: _208  and  _209
REMARK   85  A    between atoms: _211  and  _213
REMARK   86  A    between atoms: _213  and  _214
REMARK   87  A    between atoms: _213  and  _216
REMARK   88  A    between atoms: _216  and  _217
REMARK   89  A    between atoms: _217  and  _218
REMARK   90  A    between atoms: _218  and  _219
REMARK   91  A    between atoms: _228  and  _230
REMARK   92  A    between atoms: _230  and  _231
REMARK   93  A    between atoms: _230  and  _233
REMARK   94  A    between atoms: _233  and  _234
REMARK   95  A    between atoms: _239  and  _241
REMARK   96  A    between atoms: _241  and  _242
REMARK   97  A    between atoms: _241  and  _244
REMARK   98  A    between atoms: _244  and  _245
REMARK   99  A    between atoms: _245  and  _246
REMARK  100  A    between atoms: _246  and  _247
REMARK  101  A    between atoms: _256  and  _258
REMARK  102  A    between atoms: _258  and  _259
REMARK  103  A    between atoms: _258  and  _261
REMARK  104  A    between atoms: _261  and  _262
REMARK  105  A    between atoms: _265  and  _267
REMARK  106  A    between atoms: _267  and  _268
REMARK  107  A    between atoms: _267  and  _270
REMARK  108  A    between atoms: _270  and  _271
REMARK  109  A    between atoms: _274  and  _276
REMARK  110  A    between atoms: _276  and  _277
REMARK  111  A    between atoms: _276  and  _279
REMARK  112  A    between atoms: _279  and  _280
REMARK  113  A    between atoms: _283  and  _285
REMARK  114  A    between atoms: _285  and  _286
REMARK  115  A    between atoms: _285  and  _288
REMARK  116  A    between atoms: _288  and  _289
REMARK  117  A    between atoms: _292  and  _294
REMARK  118  A    between atoms: _294  and  _295
REMARK  119  A    between atoms: _297  and  _299
REMARK  120  A    between atoms: _299  and  _300
REMARK  121  A    between atoms: _303  and  _305
REMARK  122  A    between atoms: _305  and  _306
REMARK  123  A    between atoms: _305  and  _308
REMARK  124  A    between atoms: _308  and  _309
REMARK  125  A    between atoms: _312  and  _314
REMARK  126  A    between atoms: _314  and  _315
REMARK  127  A    between atoms: _314  and  _317
REMARK  128  A    between atoms: _317  and  _318
REMARK  129  A    between atoms: _321  and  _323
REMARK  130  A    between atoms: _323  and  _324
REMARK  131  A    between atoms: _323  and  _326
REMARK  132  A    between atoms: _326  and  _327
REMARK  133  A    between atoms: _330  and  _332
REMARK  134  A    between atoms: _332  and  _333
REMARK  135  A    between atoms: _332  and  _335
REMARK  136  A    between atoms: _338  and  _340
REMARK  137  A    between atoms: _340  and  _341
REMARK  138  A    between atoms: _340  and  _343
REMARK  139  A    between atoms: _343  and  _344
REMARK  140  A    between atoms: _347  and  _349
REMARK  141  A    between atoms: _349  and  _350
REMARK  142  A    between atoms: _349  and  _352
REMARK  143  A    between atoms: _352  and  _353
REMARK  144  A    between atoms: _353  and  _354
REMARK  145  A    between atoms: _356  and  _358
REMARK  146  A    between atoms: _358  and  _359
REMARK  147  A    between atoms: _358  and  _361
REMARK  148  A    between atoms: _361  and  _362
REMARK  149  A    between atoms: _365  and  _367
REMARK  150  A    between atoms: _367  and  _368
REMARK  151  A    between atoms: _371  and  _373
REMARK  152  A    between atoms: _373  and  _374
REMARK  153  A    between atoms: _376  and  _378
REMARK  154  A    between atoms: _378  and  _379
REMARK  155  A    between atoms: _378  and  _381
REMARK  156  A    between atoms: _381  and  _382
REMARK  157  A    between atoms: _385  and  _387
REMARK  158  A    between atoms: _387  and  _388
REMARK  159  A    between atoms: _390  and  _392
REMARK  160  A    between atoms: _392  and  _393
REMARK  161  A    between atoms: _395  and  _397
REMARK  162  A    between atoms: _397  and  _398
REMARK  163  A    between atoms: _397  and  _400
REMARK  164  A    between atoms: _400  and  _401
REMARK  165  A    between atoms: _407  and  _409
REMARK  166  A    between atoms: _409  and  _410
REMARK  167  A    between atoms: _409  and  _412
REMARK  168  A    between atoms: _415  and  _417
REMARK  169  A    between atoms: _417  and  _418
REMARK  170  A    between atoms: _417  and  _420
REMARK  171  A    between atoms: _423  and  _425
REMARK  172  A    between atoms: _425  and  _426
REMARK  173  A    between atoms: _425  and  _428
REMARK  174  A    between atoms: _428  and  _429
REMARK  175  A    between atoms: _432  and  _434
REMARK  176  A    between atoms: _434  and  _435
REMARK  177  A    between atoms: _434  and  _437
REMARK  178  A    between atoms: _437  and  _438
REMARK  179  A    between atoms: _442  and  _443
REMARK  180  A    between atoms: _448  and  _450
REMARK  181  A    between atoms: _450  and  _451
REMARK  182  A    between atoms: _454  and  _456
REMARK  183  A    between atoms: _456  and  _457
REMARK  184  A    between atoms: _456  and  _459
REMARK  185  A    between atoms: _459  and  _460
REMARK  186  A    between atoms: _465  and  _467
REMARK  187  A    between atoms: _467  and  _468
REMARK  188  A    between atoms: _467  and  _470
REMARK  189  A    between atoms: _473  and  _475
REMARK  190  A    between atoms: _475  and  _476
REMARK  191  A    between atoms: _475  and  _478
REMARK  192  A    between atoms: _478  and  _479
REMARK  193  A    between atoms: _482  and  _484
REMARK  194  A    between atoms: _484  and  _485
REMARK  195  A    between atoms: _487  and  _489
REMARK  196  A    between atoms: _489  and  _490
REMARK  197  A    between atoms: _489  and  _492
REMARK  198  A    between atoms: _492  and  _493
REMARK  199  A    between atoms: _493  and  _494
REMARK  200  A    between atoms: _494  and  _495
REMARK  201  A    between atoms: _504  and  _506
REMARK  202  A    between atoms: _506  and  _507
REMARK  203  A    between atoms: _506  and  _509
REMARK  204  A    between atoms: _509  and  _510
REMARK                            x       y       z     vdW  Elec       q    Type
REMARK                         _______ _______ _______ _____ _____    ______ ____
ROOT
ATOM      1  O   HOH     1       1.537 -12.123 -23.202  0.00  0.00    +0.000 OA
ENDROOT
TORSDOF 0
REMARK  Name = ../refined-set-2016/3t3c/3t3c_pocket.pdb
REMARK  204 active torsions:
REMARK  status: ('A' for Active; 'I' for Inactive)
REMARK    1  A    between atoms: _1  and  _3
REMARK    2  A    between atoms: _3  and  _4
REMARK    3  A    between atoms: _3  and  _6
REMARK    4  A    between atoms: _6  and  _7
REMARK    5  A    between atoms: _7  and  _8
REMARK    6  A    between atoms: _8  and  _9
REMARK    7  A    between atoms: _18  and  _20
REMARK    8  A    between atoms: _20  and  _21
REMARK    9  A    between atoms: _20  and  _23
REMARK   10  A    between atoms: _23  and  _24
REMARK   11  A    between atoms: _27  and  _29
REMARK   12  A    between atoms: _29  and  _30
REMARK   13  A    between atoms: _29  and  _32
REMARK   14  A    between atoms: _32  and  _33
REMARK   15  A    between atoms: _36  and  _38
REMARK   16  A    between atoms: _38  and  _39
REMARK   17  A    between atoms: _38  and  _41
REMARK   18  A    between atoms: _41  and  _42
REMARK   19  A    between atoms: _45  and  _47
REMARK   20  A    between atoms: _47  and  _48
REMARK   21  A    between atoms: _47  and  _50
REMARK   22  A    between atoms: _50  and  _51
REMARK   23  A    between atoms: _54  and  _56
REMARK   24  A    between atoms: _56  and  _57
REMARK   25  A    between atoms: _59  and  _61
REMARK   26  A    between atoms: _61  and  _62
REMARK   27  A    between atoms: _65  and  _67
REMARK   28  A    between atoms: _67  and  _68
REMARK   29  A    between atoms: _67  and  _70
REMARK   30  A    between atoms: _70  and  _71
REMARK   31  A    between atoms: _74  and  _76
REMARK   32  A    between atoms: _76  and  _77
REMARK   33  A    between atoms: _76  and  _79
REMARK   34  A    between atoms: _79  and  _80
REMARK   35  A    between atoms: _83  and  _85
REMARK   36  A    between atoms: _85  and  _86
REMARK   37  A    between atoms: _85  and  _88
REMARK   38  A    between atoms: _88  and  _89
REMARK   39  A    between atoms: _92  and  _94
REMARK   40  A    between atoms: _94  and  _95
REMARK   41  A    between atoms: _94  and  _97
REMARK   42  A    between atoms: _100  and  _102
REMARK   43  A    between atoms: _102  and  _103
REMARK   44  A    between atoms: _102  and  _105
REMARK   45  A    between atoms: _105  and  _106
REMARK   46  A    between atoms: _109  and  _111
REMARK   47  A    between atoms: _111  and  _112
REMARK   48  A    between atoms: _115  and  _117
REMARK   49  A    between atoms: _117  and  _118
REMARK   50  A    between atoms: _120  and  _122
REMARK   51  A    between atoms: _122  and  _123
REMARK   52  A    between atoms: _122  and  _125
REMARK   53  A    between atoms: _125  and  _126
REMARK   54  A    between atoms: _129  and  _131
REMARK   55  A    between atoms: _131  and  _132
REMARK   56  A    between atoms: _134  and  _136
REMARK   57  A    between atoms: _136  and  _137
REMARK   58  A    between atoms: _139  and  _141
REMARK   59  A    between atoms: _141  and  _142
REMARK   60  A    between atoms: _141  and  _144
REMARK   61  A    between atoms: _147  and  _149
REMARK   62  A    between atoms: _149  and  _150
REMARK   63  A    between atoms: _149  and  _152
REMARK   64  A    between atoms: _152  and  _153
REMARK   65  A    between atoms: _156  and  _158
REMARK   66  A    between atoms: _158  and  _159
REMARK   67  A    between atoms: _158  and  _161
REMARK   68  A    between atoms: _161  and  _162
REMARK   69  A    between atoms: _166  and  _167
REMARK   70  A    between atoms: _172  and  _174
REMARK   71  A    between atoms: _174  and  _175
REMARK   72  A    between atoms: _178  and  _180
REMARK   73  A    between atoms: _180  and  _181
REMARK   74  A    between atoms: _180  and  _183
REMARK   75  A    between atoms: _183  and  _184
REMARK   76  A    between atoms: _189  and  _191
REMARK   77  A    between atoms: _191  and  _192
REMARK   78  A    between atoms: _191  and  _194
REMARK   79  A    between atoms: _197  and  _199
REMARK   80  A    between atoms: _199  and  _200
REMARK   81  A    between atoms: _199  and  _202
REMARK   82  A    between atoms: _202  and  _203
REMARK   83  A    between atoms: _206  and  _208
REMARK   84  A    between atoms: _208  and  _209
REMARK   85  A    between atoms: _211  and  _213
REMARK   86  A    between atoms: _213  and  _214
REMARK   87  A    between atoms: _213  and  _216
REMARK   88  A    between atoms: _216  and  _217
REMARK   89  A    between atoms: _217  and  _218
REMARK   90  A    between atoms: _218  and  _219
REMARK   91  A    between atoms: _228  and  _230
REMARK   92  A    between atoms: _230  and  _231
REMARK   93  A    between atoms: _230  and  _233
REMARK   94  A    between atoms: _233  and  _234
REMARK   95  A    between atoms: _239  and  _241
REMARK   96  A    between atoms: _241  and  _242
REMARK   97  A    between atoms: _241  and  _244
REMARK   98  A    between atoms: _244  and  _245
REMARK   99  A    between atoms: _245  and  _246
REMARK  100  A    between atoms: _246  and  _247
REMARK  101  A    between atoms: _256  and  _258
REMARK  102  A    between atoms: _258  and  _259
REMARK  103  A    between atoms: _258  and  _261
REMARK  104  A    between atoms: _261  and  _262
REMARK  105  A    between atoms: _265  and  _267
REMARK  106  A    between atoms: _267  and  _268
REMARK  107  A    between atoms: _267  and  _270
REMARK  108  A    between atoms: _270  and  _271
REMARK  109  A    between atoms: _274  and  _276
REMARK  110  A    between atoms: _276  and  _277
REMARK  111  A    between atoms: _276  and  _279
REMARK  112  A    between atoms: _279  and  _280
REMARK  113  A    between atoms: _283  and  _285
REMARK  114  A    between atoms: _285  and  _286
REMARK  115  A    between atoms: _285  and  _288
REMARK  116  A    between atoms: _288  and  _289
REMARK  117  A    between atoms: _292  and  _294
REMARK  118  A    between atoms: _294  and  _295
REMARK  119  A    between atoms: _297  and  _299
REMARK  120  A    between atoms: _299  and  _300
REMARK  121  A    between atoms: _303  and  _305
REMARK  122  A    between atoms: _305  and  _306
REMARK  123  A    between atoms: _305  and  _308
REMARK  124  A    between atoms: _308  and  _309
REMARK  125  A    between atoms: _312  and  _314
REMARK  126  A    between atoms: _314  and  _315
REMARK  127  A    between atoms: _314  and  _317
REMARK  128  A    between atoms: _317  and  _318
REMARK  129  A    between atoms: _321  and  _323
REMARK  130  A    between atoms: _323  and  _324
REMARK  131  A    between atoms: _323  and  _326
REMARK  132  A    between atoms: _326  and  _327
REMARK  133  A    between atoms: _330  and  _332
REMARK  134  A    between atoms: _332  and  _333
REMARK  135  A    between atoms: _332  and  _335
REMARK  136  A    between atoms: _338  and  _340
REMARK  137  A    between atoms: _340  and  _341
REMARK  138  A    between atoms: _340  and  _343
REMARK  139  A    between atoms: _343  and  _344
REMARK  140  A    between atoms: _347  and  _349
REMARK  141  A    between atoms: _349  and  _350
REMARK  142  A    between atoms: _349  and  _352
REMARK  143  A    between atoms: _352  and  _353
REMARK  144  A    between atoms: _353  and  _354
REMARK  145  A    between atoms: _356  and  _358
REMARK  146  A    between atoms: _358  and  _359
REMARK  147  A    between atoms: _358  and  _361
REMARK  148  A    between atoms: _361  and  _362
REMARK  149  A    between atoms: _365  and  _367
REMARK  150  A    between atoms: _367  and  _368
REMARK  151  A    between atoms: _371  and  _373
REMARK  152  A    between atoms: _373  and  _374
REMARK  153  A    between atoms: _376  and  _378
REMARK  154  A    between atoms: _378  and  _379
REMARK  155  A    between atoms: _378  and  _381
REMARK  156  A    between atoms: _381  and  _382
REMARK  157  A    between atoms: _385  and  _387
REMARK  158  A    between atoms: _387  and  _388
REMARK  159  A    between atoms: _390  and  _392
REMARK  160  A    between atoms: _392  and  _393
REMARK  161  A    between atoms: _395  and  _397
REMARK  162  A    between atoms: _397  and  _398
REMARK  163  A    between atoms: _397  and  _400
REMARK  164  A    between atoms: _400  and  _401
REMARK  165  A    between atoms: _407  and  _409
REMARK  166  A    between atoms: _409  and  _410
REMARK  167  A    between atoms: _409  and  _412
REMARK  168  A    between atoms: _415  and  _417
REMARK  169  A    between atoms: _417  and  _418
REMARK  170  A    between atoms: _417  and  _420
REMARK  171  A    between atoms: _423  and  _425
REMARK  172  A    between atoms: _425  and  _426
REMARK  173  A    between atoms: _425  and  _428
REMARK  174  A    between atoms: _428  and  _429
REMARK  175  A    between atoms: _432  and  _434
REMARK  176  A    between atoms: _434  and  _435
REMARK  177  A    between atoms: _434  and  _437
REMARK  178  A    between atoms: _437  and  _438
REMARK  179  A    between atoms: _442  and  _443
REMARK  180  A    between atoms: _448  and  _450
REMARK  181  A    between atoms: _450  and  _451
REMARK  182  A    between atoms: _454  and  _456
REMARK  183  A    between atoms: _456  and  _457
REMARK  184  A    between atoms: _456  and  _459
REMARK  185  A    between atoms: _459  and  _460
REMARK  186  A    between atoms: _465  and  _467
REMARK  187  A    between atoms: _467  and  _468
REMARK  188  A    between atoms: _467  and  _470
REMARK  189  A    between atoms: _473  and  _475
REMARK  190  A    between atoms: _475  and  _476
REMARK  191  A    between atoms: _475  and  _478
REMARK  192  A    between atoms: _478  and  _479
REMARK  193  A    between atoms: _482  and  _484
REMARK  194  A    between atoms: _484  and  _485
REMARK  195  A    between atoms: _487  and  _489
REMARK  196  A    between atoms: _489  and  _490
REMARK  197  A    between atoms: _489  and  _492
REMARK  198  A    between atoms: _492  and  _493
REMARK  199  A    between atoms: _493  and  _494
REMARK  200  A    between atoms: _494  and  _495
REMARK  201  A    between atoms: _504  and  _506
REMARK  202  A    between atoms: _506  and  _507
REMARK  203  A    between atoms: _506  and  _509
REMARK  204  A    between atoms: _509  and  _510
REMARK                            x       y       z     vdW  Elec       q    Type
REMARK                         _______ _______ _______ _____ _____    ______ ____
ROOT
ATOM      1  O   HOH     1       4.057   6.794 -24.675  0.00  0.00    +0.000 OA
ENDROOT
TORSDOF 0
REMARK  Name = ../refined-set-2016/3t3c/3t3c_pocket.pdb
REMARK  204 active torsions:
REMARK  status: ('A' for Active; 'I' for Inactive)
REMARK    1  A    between atoms: _1  and  _3
REMARK    2  A    between atoms: _3  and  _4
REMARK    3  A    between atoms: _3  and  _6
REMARK    4  A    between atoms: _6  and  _7
REMARK    5  A    between atoms: _7  and  _8
REMARK    6  A    between atoms: _8  and  _9
REMARK    7  A    between atoms: _18  and  _20
REMARK    8  A    between atoms: _20  and  _21
REMARK    9  A    between atoms: _20  and  _23
REMARK   10  A    between atoms: _23  and  _24
REMARK   11  A    between atoms: _27  and  _29
REMARK   12  A    between atoms: _29  and  _30
REMARK   13  A    between atoms: _29  and  _32
REMARK   14  A    between atoms: _32  and  _33
REMARK   15  A    between atoms: _36  and  _38
REMARK   16  A    between atoms: _38  and  _39
REMARK   17  A    between atoms: _38  and  _41
REMARK   18  A    between atoms: _41  and  _42
REMARK   19  A    between atoms: _45  and  _47
REMARK   20  A    between atoms: _47  and  _48
REMARK   21  A    between atoms: _47  and  _50
REMARK   22  A    between atoms: _50  and  _51
REMARK   23  A    between atoms: _54  and  _56
REMARK   24  A    between atoms: _56  and  _57
REMARK   25  A    between atoms: _59  and  _61
REMARK   26  A    between atoms: _61  and  _62
REMARK   27  A    between atoms: _65  and  _67
REMARK   28  A    between atoms: _67  and  _68
REMARK   29  A    between atoms: _67  and  _70
REMARK   30  A    between atoms: _70  and  _71
REMARK   31  A    between atoms: _74  and  _76
REMARK   32  A    between atoms: _76  and  _77
REMARK   33  A    between atoms: _76  and  _79
REMARK   34  A    between atoms: _79  and  _80
REMARK   35  A    between atoms: _83  and  _85
REMARK   36  A    between atoms: _85  and  _86
REMARK   37  A    between atoms: _85  and  _88
REMARK   38  A    between atoms: _88  and  _89
REMARK   39  A    between atoms: _92  and  _94
REMARK   40  A    between atoms: _94  and  _95
REMARK   41  A    between atoms: _94  and  _97
REMARK   42  A    between atoms: _100  and  _102
REMARK   43  A    between atoms: _102  and  _103
REMARK   44  A    between atoms: _102  and  _105
REMARK   45  A    between atoms: _105  and  _106
REMARK   46  A    between atoms: _109  and  _111
REMARK   47  A    between atoms: _111  and  _112
REMARK   48  A    between atoms: _115  and  _117
REMARK   49  A    between atoms: _117  and  _118
REMARK   50  A    between atoms: _120  and  _122
REMARK   51  A    between atoms: _122  and  _123
REMARK   52  A    between atoms: _122  and  _125
REMARK   53  A    between atoms: _125  and  _126
REMARK   54  A    between atoms: _129  and  _131
REMARK   55  A    between atoms: _131  and  _132
REMARK   56  A    between atoms: _134  and  _136
REMARK   57  A    between atoms: _136  and  _137
REMARK   58  A    between atoms: _139  and  _141
REMARK   59  A    between atoms: _141  and  _142
REMARK   60  A    between atoms: _141  and  _144
REMARK   61  A    between atoms: _147  and  _149
REMARK   62  A    between atoms: _149  and  _150
REMARK   63  A    between atoms: _149  and  _152
REMARK   64  A    between atoms: _152  and  _153
REMARK   65  A    between atoms: _156  and  _158
REMARK   66  A    between atoms: _158  and  _159
REMARK   67  A    between atoms: _158  and  _161
REMARK   68  A    between atoms: _161  and  _162
REMARK   69  A    between atoms: _166  and  _167
REMARK   70  A    between atoms: _172  and  _174
REMARK   71  A    between atoms: _174  and  _175
REMARK   72  A    between atoms: _178  and  _180
REMARK   73  A    between atoms: _180  and  _181
REMARK   74  A    between atoms: _180  and  _183
REMARK   75  A    between atoms: _183  and  _184
REMARK   76  A    between atoms: _189  and  _191
REMARK   77  A    between atoms: _191  and  _192
REMARK   78  A    between atoms: _191  and  _194
REMARK   79  A    between atoms: _197  and  _199
REMARK   80  A    between atoms: _199  and  _200
REMARK   81  A    between atoms: _199  and  _202
REMARK   82  A    between atoms: _202  and  _203
REMARK   83  A    between atoms: _206  and  _208
REMARK   84  A    between atoms: _208  and  _209
REMARK   85  A    between atoms: _211  and  _213
REMARK   86  A    between atoms: _213  and  _214
REMARK   87  A    between atoms: _213  and  _216
REMARK   88  A    between atoms: _216  and  _217
REMARK   89  A    between atoms: _217  and  _218
REMARK   90  A    between atoms: _218  and  _219
REMARK   91  A    between atoms: _228  and  _230
REMARK   92  A    between atoms: _230  and  _231
REMARK   93  A    between atoms: _230  and  _233
REMARK   94  A    between atoms: _233  and  _234
REMARK   95  A    between atoms: _239  and  _241
REMARK   96  A    between atoms: _241  and  _242
REMARK   97  A    between atoms: _241  and  _244
REMARK   98  A    between atoms: _244  and  _245
REMARK   99  A    between atoms: _245  and  _246
REMARK  100  A    between atoms: _246  and  _247
REMARK  101  A    between atoms: _256  and  _258
REMARK  102  A    between atoms: _258  and  _259
REMARK  103  A    between atoms: _258  and  _261
REMARK  104  A    between atoms: _261  and  _262
REMARK  105  A    between atoms: _265  and  _267
REMARK  106  A    between atoms: _267  and  _268
REMARK  107  A    between atoms: _267  and  _270
REMARK  108  A    between atoms: _270  and  _271
REMARK  109  A    between atoms: _274  and  _276
REMARK  110  A    between atoms: _276  and  _277
REMARK  111  A    between atoms: _276  and  _279
REMARK  112  A    between atoms: _279  and  _280
REMARK  113  A    between atoms: _283  and  _285
REMARK  114  A    between atoms: _285  and  _286
REMARK  115  A    between atoms: _285  and  _288
REMARK  116  A    between atoms: _288  and  _289
REMARK  117  A    between atoms: _292  and  _294
REMARK  118  A    between atoms: _294  and  _295
REMARK  119  A    between atoms: _297  and  _299
REMARK  120  A    between atoms: _299  and  _300
REMARK  121  A    between atoms: _303  and  _305
REMARK  122  A    between atoms: _305  and  _306
REMARK  123  A    between atoms: _305  and  _308
REMARK  124  A    between atoms: _308  and  _309
REMARK  125  A    between atoms: _312  and  _314
REMARK  126  A    between atoms: _314  and  _315
REMARK  127  A    between atoms: _314  and  _317
REMARK  128  A    between atoms: _317  and  _318
REMARK  129  A    between atoms: _321  and  _323
REMARK  130  A    between atoms: _323  and  _324
REMARK  131  A    between atoms: _323  and  _326
REMARK  132  A    between atoms: _326  and  _327
REMARK  133  A    between atoms: _330  and  _332
REMARK  134  A    between atoms: _332  and  _333
REMARK  135  A    between atoms: _332  and  _335
REMARK  136  A    between atoms: _338  and  _340
REMARK  137  A    between atoms: _340  and  _341
REMARK  138  A    between atoms: _340  and  _343
REMARK  139  A    between atoms: _343  and  _344
REMARK  140  A    between atoms: _347  and  _349
REMARK  141  A    between atoms: _349  and  _350
REMARK  142  A    between atoms: _349  and  _352
REMARK  143  A    between atoms: _352  and  _353
REMARK  144  A    between atoms: _353  and  _354
REMARK  145  A    between atoms: _356  and  _358
REMARK  146  A    between atoms: _358  and  _359
REMARK  147  A    between atoms: _358  and  _361
REMARK  148  A    between atoms: _361  and  _362
REMARK  149  A    between atoms: _365  and  _367
REMARK  150  A    between atoms: _367  and  _368
REMARK  151  A    between atoms: _371  and  _373
REMARK  152  A    between atoms: _373  and  _374
REMARK  153  A    between atoms: _376  and  _378
REMARK  154  A    between atoms: _378  and  _379
REMARK  155  A    between atoms: _378  and  _381
REMARK  156  A    between atoms: _381  and  _382
REMARK  157  A    between atoms: _385  and  _387
REMARK  158  A    between atoms: _387  and  _388
REMARK  159  A    between atoms: _390  and  _392
REMARK  160  A    between atoms: _392  and  _393
REMARK  161  A    between atoms: _395  and  _397
REMARK  162  A    between atoms: _397  and  _398
REMARK  163  A    between atoms: _397  and  _400
REMARK  164  A    between atoms: _400  and  _401
REMARK  165  A    between atoms: _407  and  _409
REMARK  166  A    between atoms: _409  and  _410
REMARK  167  A    between atoms: _409  and  _412
REMARK  168  A    between atoms: _415  and  _417
REMARK  169  A    between atoms: _417  and  _418
REMARK  170  A    between atoms: _417  and  _420
REMARK  171  A    between atoms: _423  and  _425
REMARK  172  A    between atoms: _425  and  _426
REMARK  173  A    between atoms: _425  and  _428
REMARK  174  A    between atoms: _428  and  _429
REMARK  175  A    between atoms: _432  and  _434
REMARK  176  A    between atoms: _434  and  _435
REMARK  177  A    between atoms: _434  and  _437
REMARK  178  A    between atoms: _437  and  _438
REMARK  179  A    between atoms: _442  and  _443
REMARK  180  A    between atoms: _448  and  _450
REMARK  181  A    between atoms: _450  and  _451
REMARK  182  A    between atoms: _454  and  _456
REMARK  183  A    between atoms: _456  and  _457
REMARK  184  A    between atoms: _456  and  _459
REMARK  185  A    between atoms: _459  and  _460
REMARK  186  A    between atoms: _465  and  _467
REMARK  187  A    between atoms: _467  and  _468
REMARK  188  A    between atoms: _467  and  _470
REMARK  189  A    between atoms: _473  and  _475
REMARK  190  A    between atoms: _475  and  _476
REMARK  191  A    between atoms: _475  and  _478
REMARK  192  A    between atoms: _478  and  _479
REMARK  193  A    between atoms: _482  and  _484
REMARK  194  A    between atoms: _484  and  _485
REMARK  195  A    between atoms: _487  and  _489
REMARK  196  A    between atoms: _489  and  _490
REMARK  197  A    between atoms: _489  and  _492
REMARK  198  A    between atoms: _492  and  _493
REMARK  199  A    between atoms: _493  and  _494
REMARK  200  A    between atoms: _494  and  _495
REMARK  201  A    between atoms: _504  and  _506
REMARK  202  A    between atoms: _506  and  _507
REMARK  203  A    between atoms: _506  and  _509
REMARK  204  A    between atoms: _509  and  _510
REMARK                            x       y       z     vdW  Elec       q    Type
REMARK                         _______ _______ _______ _____ _____    ______ ____
ROOT
ATOM      1  O   HOH     1       3.058  -8.306 -13.778  0.00  0.00    +0.000 OA
ENDROOT
TORSDOF 0
REMARK  Name = ../refined-set-2016/3t3c/3t3c_pocket.pdb
REMARK  204 active torsions:
REMARK  status: ('A' for Active; 'I' for Inactive)
REMARK    1  A    between atoms: _1  and  _3
REMARK    2  A    between atoms: _3  and  _4
REMARK    3  A    between atoms: _3  and  _6
REMARK    4  A    between atoms: _6  and  _7
REMARK    5  A    between atoms: _7  and  _8
REMARK    6  A    between atoms: _8  and  _9
REMARK    7  A    between atoms: _18  and  _20
REMARK    8  A    between atoms: _20  and  _21
REMARK    9  A    between atoms: _20  and  _23
REMARK   10  A    between atoms: _23  and  _24
REMARK   11  A    between atoms: _27  and  _29
REMARK   12  A    between atoms: _29  and  _30
REMARK   13  A    between atoms: _29  and  _32
REMARK   14  A    between atoms: _32  and  _33
REMARK   15  A    between atoms: _36  and  _38
REMARK   16  A    between atoms: _38  and  _39
REMARK   17  A    between atoms: _38  and  _41
REMARK   18  A    between atoms: _41  and  _42
REMARK   19  A    between atoms: _45  and  _47
REMARK   20  A    between atoms: _47  and  _48
REMARK   21  A    between atoms: _47  and  _50
REMARK   22  A    between atoms: _50  and  _51
REMARK   23  A    between atoms: _54  and  _56
REMARK   24  A    between atoms: _56  and  _57
REMARK   25  A    between atoms: _59  and  _61
REMARK   26  A    between atoms: _61  and  _62
REMARK   27  A    between atoms: _65  and  _67
REMARK   28  A    between atoms: _67  and  _68
REMARK   29  A    between atoms: _67  and  _70
REMARK   30  A    between atoms: _70  and  _71
REMARK   31  A    between atoms: _74  and  _76
REMARK   32  A    between atoms: _76  and  _77
REMARK   33  A    between atoms: _76  and  _79
REMARK   34  A    between atoms: _79  and  _80
REMARK   35  A    between atoms: _83  and  _85
REMARK   36  A    between atoms: _85  and  _86
REMARK   37  A    between atoms: _85  and  _88
REMARK   38  A    between atoms: _88  and  _89
REMARK   39  A    between atoms: _92  and  _94
REMARK   40  A    between atoms: _94  and  _95
REMARK   41  A    between atoms: _94  and  _97
REMARK   42  A    between atoms: _100  and  _102
REMARK   43  A    between atoms: _102  and  _103
REMARK   44  A    between atoms: _102  and  _105
REMARK   45  A    between atoms: _105  and  _106
REMARK   46  A    between atoms: _109  and  _111
REMARK   47  A    between atoms: _111  and  _112
REMARK   48  A    between atoms: _115  and  _117
REMARK   49  A    between atoms: _117  and  _118
REMARK   50  A    between atoms: _120  and  _122
REMARK   51  A    between atoms: _122  and  _123
REMARK   52  A    between atoms: _122  and  _125
REMARK   53  A    between atoms: _125  and  _126
REMARK   54  A    between atoms: _129  and  _131
REMARK   55  A    between atoms: _131  and  _132
REMARK   56  A    between atoms: _134  and  _136
REMARK   57  A    between atoms: _136  and  _137
REMARK   58  A    between atoms: _139  and  _141
REMARK   59  A    between atoms: _141  and  _142
REMARK   60  A    between atoms: _141  and  _144
REMARK   61  A    between atoms: _147  and  _149
REMARK   62  A    between atoms: _149  and  _150
REMARK   63  A    between atoms: _149  and  _152
REMARK   64  A    between atoms: _152  and  _153
REMARK   65  A    between atoms: _156  and  _158
REMARK   66  A    between atoms: _158  and  _159
REMARK   67  A    between atoms: _158  and  _161
REMARK   68  A    between atoms: _161  and  _162
REMARK   69  A    between atoms: _166  and  _167
REMARK   70  A    between atoms: _172  and  _174
REMARK   71  A    between atoms: _174  and  _175
REMARK   72  A    between atoms: _178  and  _180
REMARK   73  A    between atoms: _180  and  _181
REMARK   74  A    between atoms: _180  and  _183
REMARK   75  A    between atoms: _183  and  _184
REMARK   76  A    between atoms: _189  and  _191
REMARK   77  A    between atoms: _191  and  _192
REMARK   78  A    between atoms: _191  and  _194
REMARK   79  A    between atoms: _197  and  _199
REMARK   80  A    between atoms: _199  and  _200
REMARK   81  A    between atoms: _199  and  _202
REMARK   82  A    between atoms: _202  and  _203
REMARK   83  A    between atoms: _206  and  _208
REMARK   84  A    between atoms: _208  and  _209
REMARK   85  A    between atoms: _211  and  _213
REMARK   86  A    between atoms: _213  and  _214
REMARK   87  A    between atoms: _213  and  _216
REMARK   88  A    between atoms: _216  and  _217
REMARK   89  A    between atoms: _217  and  _218
REMARK   90  A    between atoms: _218  and  _219
REMARK   91  A    between atoms: _228  and  _230
REMARK   92  A    between atoms: _230  and  _231
REMARK   93  A    between atoms: _230  and  _233
REMARK   94  A    between atoms: _233  and  _234
REMARK   95  A    between atoms: _239  and  _241
REMARK   96  A    between atoms: _241  and  _242
REMARK   97  A    between atoms: _241  and  _244
REMARK   98  A    between atoms: _244  and  _245
REMARK   99  A    between atoms: _245  and  _246
REMARK  100  A    between atoms: _246  and  _247
REMARK  101  A    between atoms: _256  and  _258
REMARK  102  A    between atoms: _258  and  _259
REMARK  103  A    between atoms: _258  and  _261
REMARK  104  A    between atoms: _261  and  _262
REMARK  105  A    between atoms: _265  and  _267
REMARK  106  A    between atoms: _267  and  _268
REMARK  107  A    between atoms: _267  and  _270
REMARK  108  A    between atoms: _270  and  _271
REMARK  109  A    between atoms: _274  and  _276
REMARK  110  A    between atoms: _276  and  _277
REMARK  111  A    between atoms: _276  and  _279
REMARK  112  A    between atoms: _279  and  _280
REMARK  113  A    between atoms: _283  and  _285
REMARK  114  A    between atoms: _285  and  _286
REMARK  115  A    between atoms: _285  and  _288
REMARK  116  A    between atoms: _288  and  _289
REMARK  117  A    between atoms: _292  and  _294
REMARK  118  A    between atoms: _294  and  _295
REMARK  119  A    between atoms: _297  and  _299
REMARK  120  A    between atoms: _299  and  _300
REMARK  121  A    between atoms: _303  and  _305
REMARK  122  A    between atoms: _305  and  _306
REMARK  123  A    between atoms: _305  and  _308
REMARK  124  A    between atoms: _308  and  _309
REMARK  125  A    between atoms: _312  and  _314
REMARK  126  A    between atoms: _314  and  _315
REMARK  127  A    between atoms: _314  and  _317
REMARK  128  A    between atoms: _317  and  _318
REMARK  129  A    between atoms: _321  and  _323
REMARK  130  A    between atoms: _323  and  _324
REMARK  131  A    between atoms: _323  and  _326
REMARK  132  A    between atoms: _326  and  _327
REMARK  133  A    between atoms: _330  and  _332
REMARK  134  A    between atoms: _332  and  _333
REMARK  135  A    between atoms: _332  and  _335
REMARK  136  A    between atoms: _338  and  _340
REMARK  137  A    between atoms: _340  and  _341
REMARK  138  A    between atoms: _340  and  _343
REMARK  139  A    between atoms: _343  and  _344
REMARK  140  A    between atoms: _347  and  _349
REMARK  141  A    between atoms: _349  and  _350
REMARK  142  A    between atoms: _349  and  _352
REMARK  143  A    between atoms: _352  and  _353
REMARK  144  A    between atoms: _353  and  _354
REMARK  145  A    between atoms: _356  and  _358
REMARK  146  A    between atoms: _358  and  _359
REMARK  147  A    between atoms: _358  and  _361
REMARK  148  A    between atoms: _361  and  _362
REMARK  149  A    between atoms: _365  and  _367
REMARK  150  A    between atoms: _367  and  _368
REMARK  151  A    between atoms: _371  and  _373
REMARK  152  A    between atoms: _373  and  _374
REMARK  153  A    between atoms: _376  and  _378
REMARK  154  A    between atoms: _378  and  _379
REMARK  155  A    between atoms: _378  and  _381
REMARK  156  A    between atoms: _381  and  _382
REMARK  157  A    between atoms: _385  and  _387
REMARK  158  A    between atoms: _387  and  _388
REMARK  159  A    between atoms: _390  and  _392
REMARK  160  A    between atoms: _392  and  _393
REMARK  161  A    between atoms: _395  and  _397
REMARK  162  A    between atoms: _397  and  _398
REMARK  163  A    between atoms: _397  and  _400
REMARK  164  A    between atoms: _400  and  _401
REMARK  165  A    between atoms: _407  and  _409
REMARK  166  A    between atoms: _409  and  _410
REMARK  167  A    between atoms: _409  and  _412
REMARK  168  A    between atoms: _415  and  _417
REMARK  169  A    between atoms: _417  and  _418
REMARK  170  A    between atoms: _417  and  _420
REMARK  171  A    between atoms: _423  and  _425
REMARK  172  A    between atoms: _425  and  _426
REMARK  173  A    between atoms: _425  and  _428
REMARK  174  A    between atoms: _428  and  _429
REMARK  175  A    between atoms: _432  and  _434
REMARK  176  A    between atoms: _434  and  _435
REMARK  177  A    between atoms: _434  and  _437
REMARK  178  A    between atoms: _437  and  _438
REMARK  179  A    between atoms: _442  and  _443
REMARK  180  A    between atoms: _448  and  _450
REMARK  181  A    between atoms: _450  and  _451
REMARK  182  A    between atoms: _454  and  _456
REMARK  183  A    between atoms: _456  and  _457
REMARK  184  A    between atoms: _456  and  _459
REMARK  185  A    between atoms: _459  and  _460
REMARK  186  A    between atoms: _465  and  _467
REMARK  187  A    between atoms: _467  and  _468
REMARK  188  A    between atoms: _467  and  _470
REMARK  189  A    between atoms: _473  and  _475
REMARK  190  A    between atoms: _475  and  _476
REMARK  191  A    between atoms: _475  and  _478
REMARK  192  A    between atoms: _478  and  _479
REMARK  193  A    between atoms: _482  and  _484
REMARK  194  A    between atoms: _484  and  _485
REMARK  195  A    between atoms: _487  and  _489
REMARK  196  A    between atoms: _489  and  _490
REMARK  197  A    between atoms: _489  and  _492
REMARK  198  A    between atoms: _492  and  _493
REMARK  199  A    between atoms: _493  and  _494
REMARK  200  A    between atoms: _494  and  _495
REMARK  201  A    between atoms: _504  and  _506
REMARK  202  A    between atoms: _506  and  _507
REMARK  203  A    between atoms: _506  and  _509
REMARK  204  A    between atoms: _509  and  _510
REMARK                            x       y       z     vdW  Elec       q    Type
REMARK                         _______ _______ _______ _____ _____    ______ ____
ROOT
ATOM      1  O   HOH     1      -3.062  -7.007 -13.883  0.00  0.00    +0.000 OA
ENDROOT
TORSDOF 0
REMARK  Name = ../refined-set-2016/3t3c/3t3c_pocket.pdb
REMARK  204 active torsions:
REMARK  status: ('A' for Active; 'I' for Inactive)
REMARK    1  A    between atoms: _1  and  _3
REMARK    2  A    between atoms: _3  and  _4
REMARK    3  A    between atoms: _3  and  _6
REMARK    4  A    between atoms: _6  and  _7
REMARK    5  A    between atoms: _7  and  _8
REMARK    6  A    between atoms: _8  and  _9
REMARK    7  A    between atoms: _18  and  _20
REMARK    8  A    between atoms: _20  and  _21
REMARK    9  A    between atoms: _20  and  _23
REMARK   10  A    between atoms: _23  and  _24
REMARK   11  A    between atoms: _27  and  _29
REMARK   12  A    between atoms: _29  and  _30
REMARK   13  A    between atoms: _29  and  _32
REMARK   14  A    between atoms: _32  and  _33
REMARK   15  A    between atoms: _36  and  _38
REMARK   16  A    between atoms: _38  and  _39
REMARK   17  A    between atoms: _38  and  _41
REMARK   18  A    between atoms: _41  and  _42
REMARK   19  A    between atoms: _45  and  _47
REMARK   20  A    between atoms: _47  and  _48
REMARK   21  A    between atoms: _47  and  _50
REMARK   22  A    between atoms: _50  and  _51
REMARK   23  A    between atoms: _54  and  _56
REMARK   24  A    between atoms: _56  and  _57
REMARK   25  A    between atoms: _59  and  _61
REMARK   26  A    between atoms: _61  and  _62
REMARK   27  A    between atoms: _65  and  _67
REMARK   28  A    between atoms: _67  and  _68
REMARK   29  A    between atoms: _67  and  _70
REMARK   30  A    between atoms: _70  and  _71
REMARK   31  A    between atoms: _74  and  _76
REMARK   32  A    between atoms: _76  and  _77
REMARK   33  A    between atoms: _76  and  _79
REMARK   34  A    between atoms: _79  and  _80
REMARK   35  A    between atoms: _83  and  _85
REMARK   36  A    between atoms: _85  and  _86
REMARK   37  A    between atoms: _85  and  _88
REMARK   38  A    between atoms: _88  and  _89
REMARK   39  A    between atoms: _92  and  _94
REMARK   40  A    between atoms: _94  and  _95
REMARK   41  A    between atoms: _94  and  _97
REMARK   42  A    between atoms: _100  and  _102
REMARK   43  A    between atoms: _102  and  _103
REMARK   44  A    between atoms: _102  and  _105
REMARK   45  A    between atoms: _105  and  _106
REMARK   46  A    between atoms: _109  and  _111
REMARK   47  A    between atoms: _111  and  _112
REMARK   48  A    between atoms: _115  and  _117
REMARK   49  A    between atoms: _117  and  _118
REMARK   50  A    between atoms: _120  and  _122
REMARK   51  A    between atoms: _122  and  _123
REMARK   52  A    between atoms: _122  and  _125
REMARK   53  A    between atoms: _125  and  _126
REMARK   54  A    between atoms: _129  and  _131
REMARK   55  A    between atoms: _131  and  _132
REMARK   56  A    between atoms: _134  and  _136
REMARK   57  A    between atoms: _136  and  _137
REMARK   58  A    between atoms: _139  and  _141
REMARK   59  A    between atoms: _141  and  _142
REMARK   60  A    between atoms: _141  and  _144
REMARK   61  A    between atoms: _147  and  _149
REMARK   62  A    between atoms: _149  and  _150
REMARK   63  A    between atoms: _149  and  _152
REMARK   64  A    between atoms: _152  and  _153
REMARK   65  A    between atoms: _156  and  _158
REMARK   66  A    between atoms: _158  and  _159
REMARK   67  A    between atoms: _158  and  _161
REMARK   68  A    between atoms: _161  and  _162
REMARK   69  A    between atoms: _166  and  _167
REMARK   70  A    between atoms: _172  and  _174
REMARK   71  A    between atoms: _174  and  _175
REMARK   72  A    between atoms: _178  and  _180
REMARK   73  A    between atoms: _180  and  _181
REMARK   74  A    between atoms: _180  and  _183
REMARK   75  A    between atoms: _183  and  _184
REMARK   76  A    between atoms: _189  and  _191
REMARK   77  A    between atoms: _191  and  _192
REMARK   78  A    between atoms: _191  and  _194
REMARK   79  A    between atoms: _197  and  _199
REMARK   80  A    between atoms: _199  and  _200
REMARK   81  A    between atoms: _199  and  _202
REMARK   82  A    between atoms: _202  and  _203
REMARK   83  A    between atoms: _206  and  _208
REMARK   84  A    between atoms: _208  and  _209
REMARK   85  A    between atoms: _211  and  _213
REMARK   86  A    between atoms: _213  and  _214
REMARK   87  A    between atoms: _213  and  _216
REMARK   88  A    between atoms: _216  and  _217
REMARK   89  A    between atoms: _217  and  _218
REMARK   90  A    between atoms: _218  and  _219
REMARK   91  A    between atoms: _228  and  _230
REMARK   92  A    between atoms: _230  and  _231
REMARK   93  A    between atoms: _230  and  _233
REMARK   94  A    between atoms: _233  and  _234
REMARK   95  A    between atoms: _239  and  _241
REMARK   96  A    between atoms: _241  and  _242
REMARK   97  A    between atoms: _241  and  _244
REMARK   98  A    between atoms: _244  and  _245
REMARK   99  A    between atoms: _245  and  _246
REMARK  100  A    between atoms: _246  and  _247
REMARK  101  A    between atoms: _256  and  _258
REMARK  102  A    between atoms: _258  and  _259
REMARK  103  A    between atoms: _258  and  _261
REMARK  104  A    between atoms: _261  and  _262
REMARK  105  A    between atoms: _265  and  _267
REMARK  106  A    between atoms: _267  and  _268
REMARK  107  A    between atoms: _267  and  _270
REMARK  108  A    between atoms: _270  and  _271
REMARK  109  A    between atoms: _274  and  _276
REMARK  110  A    between atoms: _276  and  _277
REMARK  111  A    between atoms: _276  and  _279
REMARK  112  A    between atoms: _279  and  _280
REMARK  113  A    between atoms: _283  and  _285
REMARK  114  A    between atoms: _285  and  _286
REMARK  115  A    between atoms: _285  and  _288
REMARK  116  A    between atoms: _288  and  _289
REMARK  117  A    between atoms: _292  and  _294
REMARK  118  A    between atoms: _294  and  _295
REMARK  119  A    between atoms: _297  and  _299
REMARK  120  A    between atoms: _299  and  _300
REMARK  121  A    between atoms: _303  and  _305
REMARK  122  A    between atoms: _305  and  _306
REMARK  123  A    between atoms: _305  and  _308
REMARK  124  A    between atoms: _308  and  _309
REMARK  125  A    between atoms: _312  and  _314
REMARK  126  A    between atoms: _314  and  _315
REMARK  127  A    between atoms: _314  and  _317
REMARK  128  A    between atoms: _317  and  _318
REMARK  129  A    between atoms: _321  and  _323
REMARK  130  A    between atoms: _323  and  _324
REMARK  131  A    between atoms: _323  and  _326
REMARK  132  A    between atoms: _326  and  _327
REMARK  133  A    between atoms: _330  and  _332
REMARK  134  A    between atoms: _332  and  _333
REMARK  135  A    between atoms: _332  and  _335
REMARK  136  A    between atoms: _338  and  _340
REMARK  137  A    between atoms: _340  and  _341
REMARK  138  A    between atoms: _340  and  _343
REMARK  139  A    between atoms: _343  and  _344
REMARK  140  A    between atoms: _347  and  _349
REMARK  141  A    between atoms: _349  and  _350
REMARK  142  A    between atoms: _349  and  _352
REMARK  143  A    between atoms: _352  and  _353
REMARK  144  A    between atoms: _353  and  _354
REMARK  145  A    between atoms: _356  and  _358
REMARK  146  A    between atoms: _358  and  _359
REMARK  147  A    between atoms: _358  and  _361
REMARK  148  A    between atoms: _361  and  _362
REMARK  149  A    between atoms: _365  and  _367
REMARK  150  A    between atoms: _367  and  _368
REMARK  151  A    between atoms: _371  and  _373
REMARK  152  A    between atoms: _373  and  _374
REMARK  153  A    between atoms: _376  and  _378
REMARK  154  A    between atoms: _378  and  _379
REMARK  155  A    between atoms: _378  and  _381
REMARK  156  A    between atoms: _381  and  _382
REMARK  157  A    between atoms: _385  and  _387
REMARK  158  A    between atoms: _387  and  _388
REMARK  159  A    between atoms: _390  and  _392
REMARK  160  A    between atoms: _392  and  _393
REMARK  161  A    between atoms: _395  and  _397
REMARK  162  A    between atoms: _397  and  _398
REMARK  163  A    between atoms: _397  and  _400
REMARK  164  A    between atoms: _400  and  _401
REMARK  165  A    between atoms: _407  and  _409
REMARK  166  A    between atoms: _409  and  _410
REMARK  167  A    between atoms: _409  and  _412
REMARK  168  A    between atoms: _415  and  _417
REMARK  169  A    between atoms: _417  and  _418
REMARK  170  A    between atoms: _417  and  _420
REMARK  171  A    between atoms: _423  and  _425
REMARK  172  A    between atoms: _425  and  _426
REMARK  173  A    between atoms: _425  and  _428
REMARK  174  A    between atoms: _428  and  _429
REMARK  175  A    between atoms: _432  and  _434
REMARK  176  A    between atoms: _434  and  _435
REMARK  177  A    between atoms: _434  and  _437
REMARK  178  A    between atoms: _437  and  _438
REMARK  179  A    between atoms: _442  and  _443
REMARK  180  A    between atoms: _448  and  _450
REMARK  181  A    between atoms: _450  and  _451
REMARK  182  A    between atoms: _454  and  _456
REMARK  183  A    between atoms: _456  and  _457
REMARK  184  A    between atoms: _456  and  _459
REMARK  185  A    between atoms: _459  and  _460
REMARK  186  A    between atoms: _465  and  _467
REMARK  187  A    between atoms: _467  and  _468
REMARK  188  A    between atoms: _467  and  _470
REMARK  189  A    between atoms: _473  and  _475
REMARK  190  A    between atoms: _475  and  _476
REMARK  191  A    between atoms: _475  and  _478
REMARK  192  A    between atoms: _478  and  _479
REMARK  193  A    between atoms: _482  and  _484
REMARK  194  A    between atoms: _484  and  _485
REMARK  195  A    between atoms: _487  and  _489
REMARK  196  A    between atoms: _489  and  _490
REMARK  197  A    between atoms: _489  and  _492
REMARK  198  A    between atoms: _492  and  _493
REMARK  199  A    between atoms: _493  and  _494
REMARK  200  A    between atoms: _494  and  _495
REMARK  201  A    between atoms: _504  and  _506
REMARK  202  A    between atoms: _506  and  _507
REMARK  203  A    between atoms: _506  and  _509
REMARK  204  A    between atoms: _509  and  _510
REMARK                            x       y       z     vdW  Elec       q    Type
REMARK                         _______ _______ _______ _____ _____    ______ ____
ROOT
ATOM      1  O   HOH     1       6.083   4.891 -23.459  0.00  0.00    +0.000 OA
ENDROOT
TORSDOF 0
REMARK  Name = ../refined-set-2016/3t3c/3t3c_pocket.pdb
REMARK  204 active torsions:
REMARK  status: ('A' for Active; 'I' for Inactive)
REMARK    1  A    between atoms: _1  and  _3
REMARK    2  A    between atoms: _3  and  _4
REMARK    3  A    between atoms: _3  and  _6
REMARK    4  A    between atoms: _6  and  _7
REMARK    5  A    between atoms: _7  and  _8
REMARK    6  A    between atoms: _8  and  _9
REMARK    7  A    between atoms: _18  and  _20
REMARK    8  A    between atoms: _20  and  _21
REMARK    9  A    between atoms: _20  and  _23
REMARK   10  A    between atoms: _23  and  _24
REMARK   11  A    between atoms: _27  and  _29
REMARK   12  A    between atoms: _29  and  _30
REMARK   13  A    between atoms: _29  and  _32
REMARK   14  A    between atoms: _32  and  _33
REMARK   15  A    between atoms: _36  and  _38
REMARK   16  A    between atoms: _38  and  _39
REMARK   17  A    between atoms: _38  and  _41
REMARK   18  A    between atoms: _41  and  _42
REMARK   19  A    between atoms: _45  and  _47
REMARK   20  A    between atoms: _47  and  _48
REMARK   21  A    between atoms: _47  and  _50
REMARK   22  A    between atoms: _50  and  _51
REMARK   23  A    between atoms: _54  and  _56
REMARK   24  A    between atoms: _56  and  _57
REMARK   25  A    between atoms: _59  and  _61
REMARK   26  A    between atoms: _61  and  _62
REMARK   27  A    between atoms: _65  and  _67
REMARK   28  A    between atoms: _67  and  _68
REMARK   29  A    between atoms: _67  and  _70
REMARK   30  A    between atoms: _70  and  _71
REMARK   31  A    between atoms: _74  and  _76
REMARK   32  A    between atoms: _76  and  _77
REMARK   33  A    between atoms: _76  and  _79
REMARK   34  A    between atoms: _79  and  _80
REMARK   35  A    between atoms: _83  and  _85
REMARK   36  A    between atoms: _85  and  _86
REMARK   37  A    between atoms: _85  and  _88
REMARK   38  A    between atoms: _88  and  _89
REMARK   39  A    between atoms: _92  and  _94
REMARK   40  A    between atoms: _94  and  _95
REMARK   41  A    between atoms: _94  and  _97
REMARK   42  A    between atoms: _100  and  _102
REMARK   43  A    between atoms: _102  and  _103
REMARK   44  A    between atoms: _102  and  _105
REMARK   45  A    between atoms: _105  and  _106
REMARK   46  A    between atoms: _109  and  _111
REMARK   47  A    between atoms: _111  and  _112
REMARK   48  A    between atoms: _115  and  _117
REMARK   49  A    between atoms: _117  and  _118
REMARK   50  A    between atoms: _120  and  _122
REMARK   51  A    between atoms: _122  and  _123
REMARK   52  A    between atoms: _122  and  _125
REMARK   53  A    between atoms: _125  and  _126
REMARK   54  A    between atoms: _129  and  _131
REMARK   55  A    between atoms: _131  and  _132
REMARK   56  A    between atoms: _134  and  _136
REMARK   57  A    between atoms: _136  and  _137
REMARK   58  A    between atoms: _139  and  _141
REMARK   59  A    between atoms: _141  and  _142
REMARK   60  A    between atoms: _141  and  _144
REMARK   61  A    between atoms: _147  and  _149
REMARK   62  A    between atoms: _149  and  _150
REMARK   63  A    between atoms: _149  and  _152
REMARK   64  A    between atoms: _152  and  _153
REMARK   65  A    between atoms: _156  and  _158
REMARK   66  A    between atoms: _158  and  _159
REMARK   67  A    between atoms: _158  and  _161
REMARK   68  A    between atoms: _161  and  _162
REMARK   69  A    between atoms: _166  and  _167
REMARK   70  A    between atoms: _172  and  _174
REMARK   71  A    between atoms: _174  and  _175
REMARK   72  A    between atoms: _178  and  _180
REMARK   73  A    between atoms: _180  and  _181
REMARK   74  A    between atoms: _180  and  _183
REMARK   75  A    between atoms: _183  and  _184
REMARK   76  A    between atoms: _189  and  _191
REMARK   77  A    between atoms: _191  and  _192
REMARK   78  A    between atoms: _191  and  _194
REMARK   79  A    between atoms: _197  and  _199
REMARK   80  A    between atoms: _199  and  _200
REMARK   81  A    between atoms: _199  and  _202
REMARK   82  A    between atoms: _202  and  _203
REMARK   83  A    between atoms: _206  and  _208
REMARK   84  A    between atoms: _208  and  _209
REMARK   85  A    between atoms: _211  and  _213
REMARK   86  A    between atoms: _213  and  _214
REMARK   87  A    between atoms: _213  and  _216
REMARK   88  A    between atoms: _216  and  _217
REMARK   89  A    between atoms: _217  and  _218
REMARK   90  A    between atoms: _218  and  _219
REMARK   91  A    between atoms: _228  and  _230
REMARK   92  A    between atoms: _230  and  _231
REMARK   93  A    between atoms: _230  and  _233
REMARK   94  A    between atoms: _233  and  _234
REMARK   95  A    between atoms: _239  and  _241
REMARK   96  A    between atoms: _241  and  _242
REMARK   97  A    between atoms: _241  and  _244
REMARK   98  A    between atoms: _244  and  _245
REMARK   99  A    between atoms: _245  and  _246
REMARK  100  A    between atoms: _246  and  _247
REMARK  101  A    between atoms: _256  and  _258
REMARK  102  A    between atoms: _258  and  _259
REMARK  103  A    between atoms: _258  and  _261
REMARK  104  A    between atoms: _261  and  _262
REMARK  105  A    between atoms: _265  and  _267
REMARK  106  A    between atoms: _267  and  _268
REMARK  107  A    between atoms: _267  and  _270
REMARK  108  A    between atoms: _270  and  _271
REMARK  109  A    between atoms: _274  and  _276
REMARK  110  A    between atoms: _276  and  _277
REMARK  111  A    between atoms: _276  and  _279
REMARK  112  A    between atoms: _279  and  _280
REMARK  113  A    between atoms: _283  and  _285
REMARK  114  A    between atoms: _285  and  _286
REMARK  115  A    between atoms: _285  and  _288
REMARK  116  A    between atoms: _288  and  _289
REMARK  117  A    between atoms: _292  and  _294
REMARK  118  A    between atoms: _294  and  _295
REMARK  119  A    between atoms: _297  and  _299
REMARK  120  A    between atoms: _299  and  _300
REMARK  121  A    between atoms: _303  and  _305
REMARK  122  A    between atoms: _305  and  _306
REMARK  123  A    between atoms: _305  and  _308
REMARK  124  A    between atoms: _308  and  _309
REMARK  125  A    between atoms: _312  and  _314
REMARK  126  A    between atoms: _314  and  _315
REMARK  127  A    between atoms: _314  and  _317
REMARK  128  A    between atoms: _317  and  _318
REMARK  129  A    between atoms: _321  and  _323
REMARK  130  A    between atoms: _323  and  _324
REMARK  131  A    between atoms: _323  and  _326
REMARK  132  A    between atoms: _326  and  _327
REMARK  133  A    between atoms: _330  and  _332
REMARK  134  A    between atoms: _332  and  _333
REMARK  135  A    between atoms: _332  and  _335
REMARK  136  A    between atoms: _338  and  _340
REMARK  137  A    between atoms: _340  and  _341
REMARK  138  A    between atoms: _340  and  _343
REMARK  139  A    between atoms: _343  and  _344
REMARK  140  A    between atoms: _347  and  _349
REMARK  141  A    between atoms: _349  and  _350
REMARK  142  A    between atoms: _349  and  _352
REMARK  143  A    between atoms: _352  and  _353
REMARK  144  A    between atoms: _353  and  _354
REMARK  145  A    between atoms: _356  and  _358
REMARK  146  A    between atoms: _358  and  _359
REMARK  147  A    between atoms: _358  and  _361
REMARK  148  A    between atoms: _361  and  _362
REMARK  149  A    between atoms: _365  and  _367
REMARK  150  A    between atoms: _367  and  _368
REMARK  151  A    between atoms: _371  and  _373
REMARK  152  A    between atoms: _373  and  _374
REMARK  153  A    between atoms: _376  and  _378
REMARK  154  A    between atoms: _378  and  _379
REMARK  155  A    between atoms: _378  and  _381
REMARK  156  A    between atoms: _381  and  _382
REMARK  157  A    between atoms: _385  and  _387
REMARK  158  A    between atoms: _387  and  _388
REMARK  159  A    between atoms: _390  and  _392
REMARK  160  A    between atoms: _392  and  _393
REMARK  161  A    between atoms: _395  and  _397
REMARK  162  A    between atoms: _397  and  _398
REMARK  163  A    between atoms: _397  and  _400
REMARK  164  A    between atoms: _400  and  _401
REMARK  165  A    between atoms: _407  and  _409
REMARK  166  A    between atoms: _409  and  _410
REMARK  167  A    between atoms: _409  and  _412
REMARK  168  A    between atoms: _415  and  _417
REMARK  169  A    between atoms: _417  and  _418
REMARK  170  A    between atoms: _417  and  _420
REMARK  171  A    between atoms: _423  and  _425
REMARK  172  A    between atoms: _425  and  _426
REMARK  173  A    between atoms: _425  and  _428
REMARK  174  A    between atoms: _428  and  _429
REMARK  175  A    between atoms: _432  and  _434
REMARK  176  A    between atoms: _434  and  _435
REMARK  177  A    between atoms: _434  and  _437
REMARK  178  A    between atoms: _437  and  _438
REMARK  179  A    between atoms: _442  and  _443
REMARK  180  A    between atoms: _448  and  _450
REMARK  181  A    between atoms: _450  and  _451
REMARK  182  A    between atoms: _454  and  _456
REMARK  183  A    between atoms: _456  and  _457
REMARK  184  A    between atoms: _456  and  _459
REMARK  185  A    between atoms: _459  and  _460
REMARK  186  A    between atoms: _465  and  _467
REMARK  187  A    between atoms: _467  and  _468
REMARK  188  A    between atoms: _467  and  _470
REMARK  189  A    between atoms: _473  and  _475
REMARK  190  A    between atoms: _475  and  _476
REMARK  191  A    between atoms: _475  and  _478
REMARK  192  A    between atoms: _478  and  _479
REMARK  193  A    between atoms: _482  and  _484
REMARK  194  A    between atoms: _484  and  _485
REMARK  195  A    between atoms: _487  and  _489
REMARK  196  A    between atoms: _489  and  _490
REMARK  197  A    between atoms: _489  and  _492
REMARK  198  A    between atoms: _492  and  _493
REMARK  199  A    between atoms: _493  and  _494
REMARK  200  A    between atoms: _494  and  _495
REMARK  201  A    between atoms: _504  and  _506
REMARK  202  A    between atoms: _506  and  _507
REMARK  203  A    between atoms: _506  and  _509
REMARK  204  A    between atoms: _509  and  _510
REMARK                            x       y       z     vdW  Elec       q    Type
REMARK                         _______ _______ _______ _____ _____    ______ ____
ROOT
ATOM      1  O   HOH     1       4.550  -6.473 -13.311  0.00  0.00    +0.000 OA
ENDROOT
TORSDOF 0
REMARK  Name = ../refined-set-2016/3t3c/3t3c_pocket.pdb
REMARK  204 active torsions:
REMARK  status: ('A' for Active; 'I' for Inactive)
REMARK    1  A    between atoms: _1  and  _3
REMARK    2  A    between atoms: _3  and  _4
REMARK    3  A    between atoms: _3  and  _6
REMARK    4  A    between atoms: _6  and  _7
REMARK    5  A    between atoms: _7  and  _8
REMARK    6  A    between atoms: _8  and  _9
REMARK    7  A    between atoms: _18  and  _20
REMARK    8  A    between atoms: _20  and  _21
REMARK    9  A    between atoms: _20  and  _23
REMARK   10  A    between atoms: _23  and  _24
REMARK   11  A    between atoms: _27  and  _29
REMARK   12  A    between atoms: _29  and  _30
REMARK   13  A    between atoms: _29  and  _32
REMARK   14  A    between atoms: _32  and  _33
REMARK   15  A    between atoms: _36  and  _38
REMARK   16  A    between atoms: _38  and  _39
REMARK   17  A    between atoms: _38  and  _41
REMARK   18  A    between atoms: _41  and  _42
REMARK   19  A    between atoms: _45  and  _47
REMARK   20  A    between atoms: _47  and  _48
REMARK   21  A    between atoms: _47  and  _50
REMARK   22  A    between atoms: _50  and  _51
REMARK   23  A    between atoms: _54  and  _56
REMARK   24  A    between atoms: _56  and  _57
REMARK   25  A    between atoms: _59  and  _61
REMARK   26  A    between atoms: _61  and  _62
REMARK   27  A    between atoms: _65  and  _67
REMARK   28  A    between atoms: _67  and  _68
REMARK   29  A    between atoms: _67  and  _70
REMARK   30  A    between atoms: _70  and  _71
REMARK   31  A    between atoms: _74  and  _76
REMARK   32  A    between atoms: _76  and  _77
REMARK   33  A    between atoms: _76  and  _79
REMARK   34  A    between atoms: _79  and  _80
REMARK   35  A    between atoms: _83  and  _85
REMARK   36  A    between atoms: _85  and  _86
REMARK   37  A    between atoms: _85  and  _88
REMARK   38  A    between atoms: _88  and  _89
REMARK   39  A    between atoms: _92  and  _94
REMARK   40  A    between atoms: _94  and  _95
REMARK   41  A    between atoms: _94  and  _97
REMARK   42  A    between atoms: _100  and  _102
REMARK   43  A    between atoms: _102  and  _103
REMARK   44  A    between atoms: _102  and  _105
REMARK   45  A    between atoms: _105  and  _106
REMARK   46  A    between atoms: _109  and  _111
REMARK   47  A    between atoms: _111  and  _112
REMARK   48  A    between atoms: _115  and  _117
REMARK   49  A    between atoms: _117  and  _118
REMARK   50  A    between atoms: _120  and  _122
REMARK   51  A    between atoms: _122  and  _123
REMARK   52  A    between atoms: _122  and  _125
REMARK   53  A    between atoms: _125  and  _126
REMARK   54  A    between atoms: _129  and  _131
REMARK   55  A    between atoms: _131  and  _132
REMARK   56  A    between atoms: _134  and  _136
REMARK   57  A    between atoms: _136  and  _137
REMARK   58  A    between atoms: _139  and  _141
REMARK   59  A    between atoms: _141  and  _142
REMARK   60  A    between atoms: _141  and  _144
REMARK   61  A    between atoms: _147  and  _149
REMARK   62  A    between atoms: _149  and  _150
REMARK   63  A    between atoms: _149  and  _152
REMARK   64  A    between atoms: _152  and  _153
REMARK   65  A    between atoms: _156  and  _158
REMARK   66  A    between atoms: _158  and  _159
REMARK   67  A    between atoms: _158  and  _161
REMARK   68  A    between atoms: _161  and  _162
REMARK   69  A    between atoms: _166  and  _167
REMARK   70  A    between atoms: _172  and  _174
REMARK   71  A    between atoms: _174  and  _175
REMARK   72  A    between atoms: _178  and  _180
REMARK   73  A    between atoms: _180  and  _181
REMARK   74  A    between atoms: _180  and  _183
REMARK   75  A    between atoms: _183  and  _184
REMARK   76  A    between atoms: _189  and  _191
REMARK   77  A    between atoms: _191  and  _192
REMARK   78  A    between atoms: _191  and  _194
REMARK   79  A    between atoms: _197  and  _199
REMARK   80  A    between atoms: _199  and  _200
REMARK   81  A    between atoms: _199  and  _202
REMARK   82  A    between atoms: _202  and  _203
REMARK   83  A    between atoms: _206  and  _208
REMARK   84  A    between atoms: _208  and  _209
REMARK   85  A    between atoms: _211  and  _213
REMARK   86  A    between atoms: _213  and  _214
REMARK   87  A    between atoms: _213  and  _216
REMARK   88  A    between atoms: _216  and  _217
REMARK   89  A    between atoms: _217  and  _218
REMARK   90  A    between atoms: _218  and  _219
REMARK   91  A    between atoms: _228  and  _230
REMARK   92  A    between atoms: _230  and  _231
REMARK   93  A    between atoms: _230  and  _233
REMARK   94  A    between atoms: _233  and  _234
REMARK   95  A    between atoms: _239  and  _241
REMARK   96  A    between atoms: _241  and  _242
REMARK   97  A    between atoms: _241  and  _244
REMARK   98  A    between atoms: _244  and  _245
REMARK   99  A    between atoms: _245  and  _246
REMARK  100  A    between atoms: _246  and  _247
REMARK  101  A    between atoms: _256  and  _258
REMARK  102  A    between atoms: _258  and  _259
REMARK  103  A    between atoms: _258  and  _261
REMARK  104  A    between atoms: _261  and  _262
REMARK  105  A    between atoms: _265  and  _267
REMARK  106  A    between atoms: _267  and  _268
REMARK  107  A    between atoms: _267  and  _270
REMARK  108  A    between atoms: _270  and  _271
REMARK  109  A    between atoms: _274  and  _276
REMARK  110  A    between atoms: _276  and  _277
REMARK  111  A    between atoms: _276  and  _279
REMARK  112  A    between atoms: _279  and  _280
REMARK  113  A    between atoms: _283  and  _285
REMARK  114  A    between atoms: _285  and  _286
REMARK  115  A    between atoms: _285  and  _288
REMARK  116  A    between atoms: _288  and  _289
REMARK  117  A    between atoms: _292  and  _294
REMARK  118  A    between atoms: _294  and  _295
REMARK  119  A    between atoms: _297  and  _299
REMARK  120  A    between atoms: _299  and  _300
REMARK  121  A    between atoms: _303  and  _305
REMARK  122  A    between atoms: _305  and  _306
REMARK  123  A    between atoms: _305  and  _308
REMARK  124  A    between atoms: _308  and  _309
REMARK  125  A    between atoms: _312  and  _314
REMARK  126  A    between atoms: _314  and  _315
REMARK  127  A    between atoms: _314  and  _317
REMARK  128  A    between atoms: _317  and  _318
REMARK  129  A    between atoms: _321  and  _323
REMARK  130  A    between atoms: _323  and  _324
REMARK  131  A    between atoms: _323  and  _326
REMARK  132  A    between atoms: _326  and  _327
REMARK  133  A    between atoms: _330  and  _332
REMARK  134  A    between atoms: _332  and  _333
REMARK  135  A    between atoms: _332  and  _335
REMARK  136  A    between atoms: _338  and  _340
REMARK  137  A    between atoms: _340  and  _341
REMARK  138  A    between atoms: _340  and  _343
REMARK  139  A    between atoms: _343  and  _344
REMARK  140  A    between atoms: _347  and  _349
REMARK  141  A    between atoms: _349  and  _350
REMARK  142  A    between atoms: _349  and  _352
REMARK  143  A    between atoms: _352  and  _353
REMARK  144  A    between atoms: _353  and  _354
REMARK  145  A    between atoms: _356  and  _358
REMARK  146  A    between atoms: _358  and  _359
REMARK  147  A    between atoms: _358  and  _361
REMARK  148  A    between atoms: _361  and  _362
REMARK  149  A    between atoms: _365  and  _367
REMARK  150  A    between atoms: _367  and  _368
REMARK  151  A    between atoms: _371  and  _373
REMARK  152  A    between atoms: _373  and  _374
REMARK  153  A    between atoms: _376  and  _378
REMARK  154  A    between atoms: _378  and  _379
REMARK  155  A    between atoms: _378  and  _381
REMARK  156  A    between atoms: _381  and  _382
REMARK  157  A    between atoms: _385  and  _387
REMARK  158  A    between atoms: _387  and  _388
REMARK  159  A    between atoms: _390  and  _392
REMARK  160  A    between atoms: _392  and  _393
REMARK  161  A    between atoms: _395  and  _397
REMARK  162  A    between atoms: _397  and  _398
REMARK  163  A    between atoms: _397  and  _400
REMARK  164  A    between atoms: _400  and  _401
REMARK  165  A    between atoms: _407  and  _409
REMARK  166  A    between atoms: _409  and  _410
REMARK  167  A    between atoms: _409  and  _412
REMARK  168  A    between atoms: _415  and  _417
REMARK  169  A    between atoms: _417  and  _418
REMARK  170  A    between atoms: _417  and  _420
REMARK  171  A    between atoms: _423  and  _425
REMARK  172  A    between atoms: _425  and  _426
REMARK  173  A    between atoms: _425  and  _428
REMARK  174  A    between atoms: _428  and  _429
REMARK  175  A    between atoms: _432  and  _434
REMARK  176  A    between atoms: _434  and  _435
REMARK  177  A    between atoms: _434  and  _437
REMARK  178  A    between atoms: _437  and  _438
REMARK  179  A    between atoms: _442  and  _443
REMARK  180  A    between atoms: _448  and  _450
REMARK  181  A    between atoms: _450  and  _451
REMARK  182  A    between atoms: _454  and  _456
REMARK  183  A    between atoms: _456  and  _457
REMARK  184  A    between atoms: _456  and  _459
REMARK  185  A    between atoms: _459  and  _460
REMARK  186  A    between atoms: _465  and  _467
REMARK  187  A    between atoms: _467  and  _468
REMARK  188  A    between atoms: _467  and  _470
REMARK  189  A    between atoms: _473  and  _475
REMARK  190  A    between atoms: _475  and  _476
REMARK  191  A    between atoms: _475  and  _478
REMARK  192  A    between atoms: _478  and  _479
REMARK  193  A    between atoms: _482  and  _484
REMARK  194  A    between atoms: _484  and  _485
REMARK  195  A    between atoms: _487  and  _489
REMARK  196  A    between atoms: _489  and  _490
REMARK  197  A    between atoms: _489  and  _492
REMARK  198  A    between atoms: _492  and  _493
REMARK  199  A    between atoms: _493  and  _494
REMARK  200  A    between atoms: _494  and  _495
REMARK  201  A    between atoms: _504  and  _506
REMARK  202  A    between atoms: _506  and  _507
REMARK  203  A    between atoms: _506  and  _509
REMARK  204  A    between atoms: _509  and  _510
REMARK                            x       y       z     vdW  Elec       q    Type
REMARK                         _______ _______ _______ _____ _____    ______ ____
ROOT
ATOM      1  O   HOH     1      -2.118   3.903 -26.995  0.00  0.00    +0.000 OA
ENDROOT
TORSDOF 0
REMARK  Name = ../refined-set-2016/3t3c/3t3c_pocket.pdb
REMARK  204 active torsions:
REMARK  status: ('A' for Active; 'I' for Inactive)
REMARK    1  A    between atoms: _1  and  _3
REMARK    2  A    between atoms: _3  and  _4
REMARK    3  A    between atoms: _3  and  _6
REMARK    4  A    between atoms: _6  and  _7
REMARK    5  A    between atoms: _7  and  _8
REMARK    6  A    between atoms: _8  and  _9
REMARK    7  A    between atoms: _18  and  _20
REMARK    8  A    between atoms: _20  and  _21
REMARK    9  A    between atoms: _20  and  _23
REMARK   10  A    between atoms: _23  and  _24
REMARK   11  A    between atoms: _27  and  _29
REMARK   12  A    between atoms: _29  and  _30
REMARK   13  A    between atoms: _29  and  _32
REMARK   14  A    between atoms: _32  and  _33
REMARK   15  A    between atoms: _36  and  _38
REMARK   16  A    between atoms: _38  and  _39
REMARK   17  A    between atoms: _38  and  _41
REMARK   18  A    between atoms: _41  and  _42
REMARK   19  A    between atoms: _45  and  _47
REMARK   20  A    between atoms: _47  and  _48
REMARK   21  A    between atoms: _47  and  _50
REMARK   22  A    between atoms: _50  and  _51
REMARK   23  A    between atoms: _54  and  _56
REMARK   24  A    between atoms: _56  and  _57
REMARK   25  A    between atoms: _59  and  _61
REMARK   26  A    between atoms: _61  and  _62
REMARK   27  A    between atoms: _65  and  _67
REMARK   28  A    between atoms: _67  and  _68
REMARK   29  A    between atoms: _67  and  _70
REMARK   30  A    between atoms: _70  and  _71
REMARK   31  A    between atoms: _74  and  _76
REMARK   32  A    between atoms: _76  and  _77
REMARK   33  A    between atoms: _76  and  _79
REMARK   34  A    between atoms: _79  and  _80
REMARK   35  A    between atoms: _83  and  _85
REMARK   36  A    between atoms: _85  and  _86
REMARK   37  A    between atoms: _85  and  _88
REMARK   38  A    between atoms: _88  and  _89
REMARK   39  A    between atoms: _92  and  _94
REMARK   40  A    between atoms: _94  and  _95
REMARK   41  A    between atoms: _94  and  _97
REMARK   42  A    between atoms: _100  and  _102
REMARK   43  A    between atoms: _102  and  _103
REMARK   44  A    between atoms: _102  and  _105
REMARK   45  A    between atoms: _105  and  _106
REMARK   46  A    between atoms: _109  and  _111
REMARK   47  A    between atoms: _111  and  _112
REMARK   48  A    between atoms: _115  and  _117
REMARK   49  A    between atoms: _117  and  _118
REMARK   50  A    between atoms: _120  and  _122
REMARK   51  A    between atoms: _122  and  _123
REMARK   52  A    between atoms: _122  and  _125
REMARK   53  A    between atoms: _125  and  _126
REMARK   54  A    between atoms: _129  and  _131
REMARK   55  A    between atoms: _131  and  _132
REMARK   56  A    between atoms: _134  and  _136
REMARK   57  A    between atoms: _136  and  _137
REMARK   58  A    between atoms: _139  and  _141
REMARK   59  A    between atoms: _141  and  _142
REMARK   60  A    between atoms: _141  and  _144
REMARK   61  A    between atoms: _147  and  _149
REMARK   62  A    between atoms: _149  and  _150
REMARK   63  A    between atoms: _149  and  _152
REMARK   64  A    between atoms: _152  and  _153
REMARK   65  A    between atoms: _156  and  _158
REMARK   66  A    between atoms: _158  and  _159
REMARK   67  A    between atoms: _158  and  _161
REMARK   68  A    between atoms: _161  and  _162
REMARK   69  A    between atoms: _166  and  _167
REMARK   70  A    between atoms: _172  and  _174
REMARK   71  A    between atoms: _174  and  _175
REMARK   72  A    between atoms: _178  and  _180
REMARK   73  A    between atoms: _180  and  _181
REMARK   74  A    between atoms: _180  and  _183
REMARK   75  A    between atoms: _183  and  _184
REMARK   76  A    between atoms: _189  and  _191
REMARK   77  A    between atoms: _191  and  _192
REMARK   78  A    between atoms: _191  and  _194
REMARK   79  A    between atoms: _197  and  _199
REMARK   80  A    between atoms: _199  and  _200
REMARK   81  A    between atoms: _199  and  _202
REMARK   82  A    between atoms: _202  and  _203
REMARK   83  A    between atoms: _206  and  _208
REMARK   84  A    between atoms: _208  and  _209
REMARK   85  A    between atoms: _211  and  _213
REMARK   86  A    between atoms: _213  and  _214
REMARK   87  A    between atoms: _213  and  _216
REMARK   88  A    between atoms: _216  and  _217
REMARK   89  A    between atoms: _217  and  _218
REMARK   90  A    between atoms: _218  and  _219
REMARK   91  A    between atoms: _228  and  _230
REMARK   92  A    between atoms: _230  and  _231
REMARK   93  A    between atoms: _230  and  _233
REMARK   94  A    between atoms: _233  and  _234
REMARK   95  A    between atoms: _239  and  _241
REMARK   96  A    between atoms: _241  and  _242
REMARK   97  A    between atoms: _241  and  _244
REMARK   98  A    between atoms: _244  and  _245
REMARK   99  A    between atoms: _245  and  _246
REMARK  100  A    between atoms: _246  and  _247
REMARK  101  A    between atoms: _256  and  _258
REMARK  102  A    between atoms: _258  and  _259
REMARK  103  A    between atoms: _258  and  _261
REMARK  104  A    between atoms: _261  and  _262
REMARK  105  A    between atoms: _265  and  _267
REMARK  106  A    between atoms: _267  and  _268
REMARK  107  A    between atoms: _267  and  _270
REMARK  108  A    between atoms: _270  and  _271
REMARK  109  A    between atoms: _274  and  _276
REMARK  110  A    between atoms: _276  and  _277
REMARK  111  A    between atoms: _276  and  _279
REMARK  112  A    between atoms: _279  and  _280
REMARK  113  A    between atoms: _283  and  _285
REMARK  114  A    between atoms: _285  and  _286
REMARK  115  A    between atoms: _285  and  _288
REMARK  116  A    between atoms: _288  and  _289
REMARK  117  A    between atoms: _292  and  _294
REMARK  118  A    between atoms: _294  and  _295
REMARK  119  A    between atoms: _297  and  _299
REMARK  120  A    between atoms: _299  and  _300
REMARK  121  A    between atoms: _303  and  _305
REMARK  122  A    between atoms: _305  and  _306
REMARK  123  A    between atoms: _305  and  _308
REMARK  124  A    between atoms: _308  and  _309
REMARK  125  A    between atoms: _312  and  _314
REMARK  126  A    between atoms: _314  and  _315
REMARK  127  A    between atoms: _314  and  _317
REMARK  128  A    between atoms: _317  and  _318
REMARK  129  A    between atoms: _321  and  _323
REMARK  130  A    between atoms: _323  and  _324
REMARK  131  A    between atoms: _323  and  _326
REMARK  132  A    between atoms: _326  and  _327
REMARK  133  A    between atoms: _330  and  _332
REMARK  134  A    between atoms: _332  and  _333
REMARK  135  A    between atoms: _332  and  _335
REMARK  136  A    between atoms: _338  and  _340
REMARK  137  A    between atoms: _340  and  _341
REMARK  138  A    between atoms: _340  and  _343
REMARK  139  A    between atoms: _343  and  _344
REMARK  140  A    between atoms: _347  and  _349
REMARK  141  A    between atoms: _349  and  _350
REMARK  142  A    between atoms: _349  and  _352
REMARK  143  A    between atoms: _352  and  _353
REMARK  144  A    between atoms: _353  and  _354
REMARK  145  A    between atoms: _356  and  _358
REMARK  146  A    between atoms: _358  and  _359
REMARK  147  A    between atoms: _358  and  _361
REMARK  148  A    between atoms: _361  and  _362
REMARK  149  A    between atoms: _365  and  _367
REMARK  150  A    between atoms: _367  and  _368
REMARK  151  A    between atoms: _371  and  _373
REMARK  152  A    between atoms: _373  and  _374
REMARK  153  A    between atoms: _376  and  _378
REMARK  154  A    between atoms: _378  and  _379
REMARK  155  A    between atoms: _378  and  _381
REMARK  156  A    between atoms: _381  and  _382
REMARK  157  A    between atoms: _385  and  _387
REMARK  158  A    between atoms: _387  and  _388
REMARK  159  A    between atoms: _390  and  _392
REMARK  160  A    between atoms: _392  and  _393
REMARK  161  A    between atoms: _395  and  _397
REMARK  162  A    between atoms: _397  and  _398
REMARK  163  A    between atoms: _397  and  _400
REMARK  164  A    between atoms: _400  and  _401
REMARK  165  A    between atoms: _407  and  _409
REMARK  166  A    between atoms: _409  and  _410
REMARK  167  A    between atoms: _409  and  _412
REMARK  168  A    between atoms: _415  and  _417
REMARK  169  A    between atoms: _417  and  _418
REMARK  170  A    between atoms: _417  and  _420
REMARK  171  A    between atoms: _423  and  _425
REMARK  172  A    between atoms: _425  and  _426
REMARK  173  A    between atoms: _425  and  _428
REMARK  174  A    between atoms: _428  and  _429
REMARK  175  A    between atoms: _432  and  _434
REMARK  176  A    between atoms: _434  and  _435
REMARK  177  A    between atoms: _434  and  _437
REMARK  178  A    between atoms: _437  and  _438
REMARK  179  A    between atoms: _442  and  _443
REMARK  180  A    between atoms: _448  and  _450
REMARK  181  A    between atoms: _450  and  _451
REMARK  182  A    between atoms: _454  and  _456
REMARK  183  A    between atoms: _456  and  _457
REMARK  184  A    between atoms: _456  and  _459
REMARK  185  A    between atoms: _459  and  _460
REMARK  186  A    between atoms: _465  and  _467
REMARK  187  A    between atoms: _467  and  _468
REMARK  188  A    between atoms: _467  and  _470
REMARK  189  A    between atoms: _473  and  _475
REMARK  190  A    between atoms: _475  and  _476
REMARK  191  A    between atoms: _475  and  _478
REMARK  192  A    between atoms: _478  and  _479
REMARK  193  A    between atoms: _482  and  _484
REMARK  194  A    between atoms: _484  and  _485
REMARK  195  A    between atoms: _487  and  _489
REMARK  196  A    between atoms: _489  and  _490
REMARK  197  A    between atoms: _489  and  _492
REMARK  198  A    between atoms: _492  and  _493
REMARK  199  A    between atoms: _493  and  _494
REMARK  200  A    between atoms: _494  and  _495
REMARK  201  A    between atoms: _504  and  _506
REMARK  202  A    between atoms: _506  and  _507
REMARK  203  A    between atoms: _506  and  _509
REMARK  204  A    between atoms: _509  and  _510
REMARK                            x       y       z     vdW  Elec       q    Type
REMARK                         _______ _______ _______ _____ _____    ______ ____
ROOT
ATOM      1  O   HOH     1       6.827  -1.105 -10.608  0.00  0.00    +0.000 OA
ENDROOT
TORSDOF 0
REMARK  Name = ../refined-set-2016/3t3c/3t3c_pocket.pdb
REMARK  204 active torsions:
REMARK  status: ('A' for Active; 'I' for Inactive)
REMARK    1  A    between atoms: _1  and  _3
REMARK    2  A    between atoms: _3  and  _4
REMARK    3  A    between atoms: _3  and  _6
REMARK    4  A    between atoms: _6  and  _7
REMARK    5  A    between atoms: _7  and  _8
REMARK    6  A    between atoms: _8  and  _9
REMARK    7  A    between atoms: _18  and  _20
REMARK    8  A    between atoms: _20  and  _21
REMARK    9  A    between atoms: _20  and  _23
REMARK   10  A    between atoms: _23  and  _24
REMARK   11  A    between atoms: _27  and  _29
REMARK   12  A    between atoms: _29  and  _30
REMARK   13  A    between atoms: _29  and  _32
REMARK   14  A    between atoms: _32  and  _33
REMARK   15  A    between atoms: _36  and  _38
REMARK   16  A    between atoms: _38  and  _39
REMARK   17  A    between atoms: _38  and  _41
REMARK   18  A    between atoms: _41  and  _42
REMARK   19  A    between atoms: _45  and  _47
REMARK   20  A    between atoms: _47  and  _48
REMARK   21  A    between atoms: _47  and  _50
REMARK   22  A    between atoms: _50  and  _51
REMARK   23  A    between atoms: _54  and  _56
REMARK   24  A    between atoms: _56  and  _57
REMARK   25  A    between atoms: _59  and  _61
REMARK   26  A    between atoms: _61  and  _62
REMARK   27  A    between atoms: _65  and  _67
REMARK   28  A    between atoms: _67  and  _68
REMARK   29  A    between atoms: _67  and  _70
REMARK   30  A    between atoms: _70  and  _71
REMARK   31  A    between atoms: _74  and  _76
REMARK   32  A    between atoms: _76  and  _77
REMARK   33  A    between atoms: _76  and  _79
REMARK   34  A    between atoms: _79  and  _80
REMARK   35  A    between atoms: _83  and  _85
REMARK   36  A    between atoms: _85  and  _86
REMARK   37  A    between atoms: _85  and  _88
REMARK   38  A    between atoms: _88  and  _89
REMARK   39  A    between atoms: _92  and  _94
REMARK   40  A    between atoms: _94  and  _95
REMARK   41  A    between atoms: _94  and  _97
REMARK   42  A    between atoms: _100  and  _102
REMARK   43  A    between atoms: _102  and  _103
REMARK   44  A    between atoms: _102  and  _105
REMARK   45  A    between atoms: _105  and  _106
REMARK   46  A    between atoms: _109  and  _111
REMARK   47  A    between atoms: _111  and  _112
REMARK   48  A    between atoms: _115  and  _117
REMARK   49  A    between atoms: _117  and  _118
REMARK   50  A    between atoms: _120  and  _122
REMARK   51  A    between atoms: _122  and  _123
REMARK   52  A    between atoms: _122  and  _125
REMARK   53  A    between atoms: _125  and  _126
REMARK   54  A    between atoms: _129  and  _131
REMARK   55  A    between atoms: _131  and  _132
REMARK   56  A    between atoms: _134  and  _136
REMARK   57  A    between atoms: _136  and  _137
REMARK   58  A    between atoms: _139  and  _141
REMARK   59  A    between atoms: _141  and  _142
REMARK   60  A    between atoms: _141  and  _144
REMARK   61  A    between atoms: _147  and  _149
REMARK   62  A    between atoms: _149  and  _150
REMARK   63  A    between atoms: _149  and  _152
REMARK   64  A    between atoms: _152  and  _153
REMARK   65  A    between atoms: _156  and  _158
REMARK   66  A    between atoms: _158  and  _159
REMARK   67  A    between atoms: _158  and  _161
REMARK   68  A    between atoms: _161  and  _162
REMARK   69  A    between atoms: _166  and  _167
REMARK   70  A    between atoms: _172  and  _174
REMARK   71  A    between atoms: _174  and  _175
REMARK   72  A    between atoms: _178  and  _180
REMARK   73  A    between atoms: _180  and  _181
REMARK   74  A    between atoms: _180  and  _183
REMARK   75  A    between atoms: _183  and  _184
REMARK   76  A    between atoms: _189  and  _191
REMARK   77  A    between atoms: _191  and  _192
REMARK   78  A    between atoms: _191  and  _194
REMARK   79  A    between atoms: _197  and  _199
REMARK   80  A    between atoms: _199  and  _200
REMARK   81  A    between atoms: _199  and  _202
REMARK   82  A    between atoms: _202  and  _203
REMARK   83  A    between atoms: _206  and  _208
REMARK   84  A    between atoms: _208  and  _209
REMARK   85  A    between atoms: _211  and  _213
REMARK   86  A    between atoms: _213  and  _214
REMARK   87  A    between atoms: _213  and  _216
REMARK   88  A    between atoms: _216  and  _217
REMARK   89  A    between atoms: _217  and  _218
REMARK   90  A    between atoms: _218  and  _219
REMARK   91  A    between atoms: _228  and  _230
REMARK   92  A    between atoms: _230  and  _231
REMARK   93  A    between atoms: _230  and  _233
REMARK   94  A    between atoms: _233  and  _234
REMARK   95  A    between atoms: _239  and  _241
REMARK   96  A    between atoms: _241  and  _242
REMARK   97  A    between atoms: _241  and  _244
REMARK   98  A    between atoms: _244  and  _245
REMARK   99  A    between atoms: _245  and  _246
REMARK  100  A    between atoms: _246  and  _247
REMARK  101  A    between atoms: _256  and  _258
REMARK  102  A    between atoms: _258  and  _259
REMARK  103  A    between atoms: _258  and  _261
REMARK  104  A    between atoms: _261  and  _262
REMARK  105  A    between atoms: _265  and  _267
REMARK  106  A    between atoms: _267  and  _268
REMARK  107  A    between atoms: _267  and  _270
REMARK  108  A    between atoms: _270  and  _271
REMARK  109  A    between atoms: _274  and  _276
REMARK  110  A    between atoms: _276  and  _277
REMARK  111  A    between atoms: _276  and  _279
REMARK  112  A    between atoms: _279  and  _280
REMARK  113  A    between atoms: _283  and  _285
REMARK  114  A    between atoms: _285  and  _286
REMARK  115  A    between atoms: _285  and  _288
REMARK  116  A    between atoms: _288  and  _289
REMARK  117  A    between atoms: _292  and  _294
REMARK  118  A    between atoms: _294  and  _295
REMARK  119  A    between atoms: _297  and  _299
REMARK  120  A    between atoms: _299  and  _300
REMARK  121  A    between atoms: _303  and  _305
REMARK  122  A    between atoms: _305  and  _306
REMARK  123  A    between atoms: _305  and  _308
REMARK  124  A    between atoms: _308  and  _309
REMARK  125  A    between atoms: _312  and  _314
REMARK  126  A    between atoms: _314  and  _315
REMARK  127  A    between atoms: _314  and  _317
REMARK  128  A    between atoms: _317  and  _318
REMARK  129  A    between atoms: _321  and  _323
REMARK  130  A    between atoms: _323  and  _324
REMARK  131  A    between atoms: _323  and  _326
REMARK  132  A    between atoms: _326  and  _327
REMARK  133  A    between atoms: _330  and  _332
REMARK  134  A    between atoms: _332  and  _333
REMARK  135  A    between atoms: _332  and  _335
REMARK  136  A    between atoms: _338  and  _340
REMARK  137  A    between atoms: _340  and  _341
REMARK  138  A    between atoms: _340  and  _343
REMARK  139  A    between atoms: _343  and  _344
REMARK  140  A    between atoms: _347  and  _349
REMARK  141  A    between atoms: _349  and  _350
REMARK  142  A    between atoms: _349  and  _352
REMARK  143  A    between atoms: _352  and  _353
REMARK  144  A    between atoms: _353  and  _354
REMARK  145  A    between atoms: _356  and  _358
REMARK  146  A    between atoms: _358  and  _359
REMARK  147  A    between atoms: _358  and  _361
REMARK  148  A    between atoms: _361  and  _362
REMARK  149  A    between atoms: _365  and  _367
REMARK  150  A    between atoms: _367  and  _368
REMARK  151  A    between atoms: _371  and  _373
REMARK  152  A    between atoms: _373  and  _374
REMARK  153  A    between atoms: _376  and  _378
REMARK  154  A    between atoms: _378  and  _379
REMARK  155  A    between atoms: _378  and  _381
REMARK  156  A    between atoms: _381  and  _382
REMARK  157  A    between atoms: _385  and  _387
REMARK  158  A    between atoms: _387  and  _388
REMARK  159  A    between atoms: _390  and  _392
REMARK  160  A    between atoms: _392  and  _393
REMARK  161  A    between atoms: _395  and  _397
REMARK  162  A    between atoms: _397  and  _398
REMARK  163  A    between atoms: _397  and  _400
REMARK  164  A    between atoms: _400  and  _401
REMARK  165  A    between atoms: _407  and  _409
REMARK  166  A    between atoms: _409  and  _410
REMARK  167  A    between atoms: _409  and  _412
REMARK  168  A    between atoms: _415  and  _417
REMARK  169  A    between atoms: _417  and  _418
REMARK  170  A    between atoms: _417  and  _420
REMARK  171  A    between atoms: _423  and  _425
REMARK  172  A    between atoms: _425  and  _426
REMARK  173  A    between atoms: _425  and  _428
REMARK  174  A    between atoms: _428  and  _429
REMARK  175  A    between atoms: _432  and  _434
REMARK  176  A    between atoms: _434  and  _435
REMARK  177  A    between atoms: _434  and  _437
REMARK  178  A    between atoms: _437  and  _438
REMARK  179  A    between atoms: _442  and  _443
REMARK  180  A    between atoms: _448  and  _450
REMARK  181  A    between atoms: _450  and  _451
REMARK  182  A    between atoms: _454  and  _456
REMARK  183  A    between atoms: _456  and  _457
REMARK  184  A    between atoms: _456  and  _459
REMARK  185  A    between atoms: _459  and  _460
REMARK  186  A    between atoms: _465  and  _467
REMARK  187  A    between atoms: _467  and  _468
REMARK  188  A    between atoms: _467  and  _470
REMARK  189  A    between atoms: _473  and  _475
REMARK  190  A    between atoms: _475  and  _476
REMARK  191  A    between atoms: _475  and  _478
REMARK  192  A    between atoms: _478  and  _479
REMARK  193  A    between atoms: _482  and  _484
REMARK  194  A    between atoms: _484  and  _485
REMARK  195  A    between atoms: _487  and  _489
REMARK  196  A    between atoms: _489  and  _490
REMARK  197  A    between atoms: _489  and  _492
REMARK  198  A    between atoms: _492  and  _493
REMARK  199  A    between atoms: _493  and  _494
REMARK  200  A    between atoms: _494  and  _495
REMARK  201  A    between atoms: _504  and  _506
REMARK  202  A    between atoms: _506  and  _507
REMARK  203  A    between atoms: _506  and  _509
REMARK  204  A    between atoms: _509  and  _510
REMARK                            x       y       z     vdW  Elec       q    Type
REMARK                         _______ _______ _______ _____ _____    ______ ____
ROOT
ATOM      1  O   HOH     1       0.767  -4.815  -7.529  0.00  0.00    +0.000 OA
ENDROOT
TORSDOF 0
REMARK  Name = ../refined-set-2016/3t3c/3t3c_pocket.pdb
REMARK  204 active torsions:
REMARK  status: ('A' for Active; 'I' for Inactive)
REMARK    1  A    between atoms: _1  and  _3
REMARK    2  A    between atoms: _3  and  _4
REMARK    3  A    between atoms: _3  and  _6
REMARK    4  A    between atoms: _6  and  _7
REMARK    5  A    between atoms: _7  and  _8
REMARK    6  A    between atoms: _8  and  _9
REMARK    7  A    between atoms: _18  and  _20
REMARK    8  A    between atoms: _20  and  _21
REMARK    9  A    between atoms: _20  and  _23
REMARK   10  A    between atoms: _23  and  _24
REMARK   11  A    between atoms: _27  and  _29
REMARK   12  A    between atoms: _29  and  _30
REMARK   13  A    between atoms: _29  and  _32
REMARK   14  A    between atoms: _32  and  _33
REMARK   15  A    between atoms: _36  and  _38
REMARK   16  A    between atoms: _38  and  _39
REMARK   17  A    between atoms: _38  and  _41
REMARK   18  A    between atoms: _41  and  _42
REMARK   19  A    between atoms: _45  and  _47
REMARK   20  A    between atoms: _47  and  _48
REMARK   21  A    between atoms: _47  and  _50
REMARK   22  A    between atoms: _50  and  _51
REMARK   23  A    between atoms: _54  and  _56
REMARK   24  A    between atoms: _56  and  _57
REMARK   25  A    between atoms: _59  and  _61
REMARK   26  A    between atoms: _61  and  _62
REMARK   27  A    between atoms: _65  and  _67
REMARK   28  A    between atoms: _67  and  _68
REMARK   29  A    between atoms: _67  and  _70
REMARK   30  A    between atoms: _70  and  _71
REMARK   31  A    between atoms: _74  and  _76
REMARK   32  A    between atoms: _76  and  _77
REMARK   33  A    between atoms: _76  and  _79
REMARK   34  A    between atoms: _79  and  _80
REMARK   35  A    between atoms: _83  and  _85
REMARK   36  A    between atoms: _85  and  _86
REMARK   37  A    between atoms: _85  and  _88
REMARK   38  A    between atoms: _88  and  _89
REMARK   39  A    between atoms: _92  and  _94
REMARK   40  A    between atoms: _94  and  _95
REMARK   41  A    between atoms: _94  and  _97
REMARK   42  A    between atoms: _100  and  _102
REMARK   43  A    between atoms: _102  and  _103
REMARK   44  A    between atoms: _102  and  _105
REMARK   45  A    between atoms: _105  and  _106
REMARK   46  A    between atoms: _109  and  _111
REMARK   47  A    between atoms: _111  and  _112
REMARK   48  A    between atoms: _115  and  _117
REMARK   49  A    between atoms: _117  and  _118
REMARK   50  A    between atoms: _120  and  _122
REMARK   51  A    between atoms: _122  and  _123
REMARK   52  A    between atoms: _122  and  _125
REMARK   53  A    between atoms: _125  and  _126
REMARK   54  A    between atoms: _129  and  _131
REMARK   55  A    between atoms: _131  and  _132
REMARK   56  A    between atoms: _134  and  _136
REMARK   57  A    between atoms: _136  and  _137
REMARK   58  A    between atoms: _139  and  _141
REMARK   59  A    between atoms: _141  and  _142
REMARK   60  A    between atoms: _141  and  _144
REMARK   61  A    between atoms: _147  and  _149
REMARK   62  A    between atoms: _149  and  _150
REMARK   63  A    between atoms: _149  and  _152
REMARK   64  A    between atoms: _152  and  _153
REMARK   65  A    between atoms: _156  and  _158
REMARK   66  A    between atoms: _158  and  _159
REMARK   67  A    between atoms: _158  and  _161
REMARK   68  A    between atoms: _161  and  _162
REMARK   69  A    between atoms: _166  and  _167
REMARK   70  A    between atoms: _172  and  _174
REMARK   71  A    between atoms: _174  and  _175
REMARK   72  A    between atoms: _178  and  _180
REMARK   73  A    between atoms: _180  and  _181
REMARK   74  A    between atoms: _180  and  _183
REMARK   75  A    between atoms: _183  and  _184
REMARK   76  A    between atoms: _189  and  _191
REMARK   77  A    between atoms: _191  and  _192
REMARK   78  A    between atoms: _191  and  _194
REMARK   79  A    between atoms: _197  and  _199
REMARK   80  A    between atoms: _199  and  _200
REMARK   81  A    between atoms: _199  and  _202
REMARK   82  A    between atoms: _202  and  _203
REMARK   83  A    between atoms: _206  and  _208
REMARK   84  A    between atoms: _208  and  _209
REMARK   85  A    between atoms: _211  and  _213
REMARK   86  A    between atoms: _213  and  _214
REMARK   87  A    between atoms: _213  and  _216
REMARK   88  A    between atoms: _216  and  _217
REMARK   89  A    between atoms: _217  and  _218
REMARK   90  A    between atoms: _218  and  _219
REMARK   91  A    between atoms: _228  and  _230
REMARK   92  A    between atoms: _230  and  _231
REMARK   93  A    between atoms: _230  and  _233
REMARK   94  A    between atoms: _233  and  _234
REMARK   95  A    between atoms: _239  and  _241
REMARK   96  A    between atoms: _241  and  _242
REMARK   97  A    between atoms: _241  and  _244
REMARK   98  A    between atoms: _244  and  _245
REMARK   99  A    between atoms: _245  and  _246
REMARK  100  A    between atoms: _246  and  _247
REMARK  101  A    between atoms: _256  and  _258
REMARK  102  A    between atoms: _258  and  _259
REMARK  103  A    between atoms: _258  and  _261
REMARK  104  A    between atoms: _261  and  _262
REMARK  105  A    between atoms: _265  and  _267
REMARK  106  A    between atoms: _267  and  _268
REMARK  107  A    between atoms: _267  and  _270
REMARK  108  A    between atoms: _270  and  _271
REMARK  109  A    between atoms: _274  and  _276
REMARK  110  A    between atoms: _276  and  _277
REMARK  111  A    between atoms: _276  and  _279
REMARK  112  A    between atoms: _279  and  _280
REMARK  113  A    between atoms: _283  and  _285
REMARK  114  A    between atoms: _285  and  _286
REMARK  115  A    between atoms: _285  and  _288
REMARK  116  A    between atoms: _288  and  _289
REMARK  117  A    between atoms: _292  and  _294
REMARK  118  A    between atoms: _294  and  _295
REMARK  119  A    between atoms: _297  and  _299
REMARK  120  A    between atoms: _299  and  _300
REMARK  121  A    between atoms: _303  and  _305
REMARK  122  A    between atoms: _305  and  _306
REMARK  123  A    between atoms: _305  and  _308
REMARK  124  A    between atoms: _308  and  _309
REMARK  125  A    between atoms: _312  and  _314
REMARK  126  A    between atoms: _314  and  _315
REMARK  127  A    between atoms: _314  and  _317
REMARK  128  A    between atoms: _317  and  _318
REMARK  129  A    between atoms: _321  and  _323
REMARK  130  A    between atoms: _323  and  _324
REMARK  131  A    between atoms: _323  and  _326
REMARK  132  A    between atoms: _326  and  _327
REMARK  133  A    between atoms: _330  and  _332
REMARK  134  A    between atoms: _332  and  _333
REMARK  135  A    between atoms: _332  and  _335
REMARK  136  A    between atoms: _338  and  _340
REMARK  137  A    between atoms: _340  and  _341
REMARK  138  A    between atoms: _340  and  _343
REMARK  139  A    between atoms: _343  and  _344
REMARK  140  A    between atoms: _347  and  _349
REMARK  141  A    between atoms: _349  and  _350
REMARK  142  A    between atoms: _349  and  _352
REMARK  143  A    between atoms: _352  and  _353
REMARK  144  A    between atoms: _353  and  _354
REMARK  145  A    between atoms: _356  and  _358
REMARK  146  A    between atoms: _358  and  _359
REMARK  147  A    between atoms: _358  and  _361
REMARK  148  A    between atoms: _361  and  _362
REMARK  149  A    between atoms: _365  and  _367
REMARK  150  A    between atoms: _367  and  _368
REMARK  151  A    between atoms: _371  and  _373
REMARK  152  A    between atoms: _373  and  _374
REMARK  153  A    between atoms: _376  and  _378
REMARK  154  A    between atoms: _378  and  _379
REMARK  155  A    between atoms: _378  and  _381
REMARK  156  A    between atoms: _381  and  _382
REMARK  157  A    between atoms: _385  and  _387
REMARK  158  A    between atoms: _387  and  _388
REMARK  159  A    between atoms: _390  and  _392
REMARK  160  A    between atoms: _392  and  _393
REMARK  161  A    between atoms: _395  and  _397
REMARK  162  A    between atoms: _397  and  _398
REMARK  163  A    between atoms: _397  and  _400
REMARK  164  A    between atoms: _400  and  _401
REMARK  165  A    between atoms: _407  and  _409
REMARK  166  A    between atoms: _409  and  _410
REMARK  167  A    between atoms: _409  and  _412
REMARK  168  A    between atoms: _415  and  _417
REMARK  169  A    between atoms: _417  and  _418
REMARK  170  A    between atoms: _417  and  _420
REMARK  171  A    between atoms: _423  and  _425
REMARK  172  A    between atoms: _425  and  _426
REMARK  173  A    between atoms: _425  and  _428
REMARK  174  A    between atoms: _428  and  _429
REMARK  175  A    between atoms: _432  and  _434
REMARK  176  A    between atoms: _434  and  _435
REMARK  177  A    between atoms: _434  and  _437
REMARK  178  A    between atoms: _437  and  _438
REMARK  179  A    between atoms: _442  and  _443
REMARK  180  A    between atoms: _448  and  _450
REMARK  181  A    between atoms: _450  and  _451
REMARK  182  A    between atoms: _454  and  _456
REMARK  183  A    between atoms: _456  and  _457
REMARK  184  A    between atoms: _456  and  _459
REMARK  185  A    between atoms: _459  and  _460
REMARK  186  A    between atoms: _465  and  _467
REMARK  187  A    between atoms: _467  and  _468
REMARK  188  A    between atoms: _467  and  _470
REMARK  189  A    between atoms: _473  and  _475
REMARK  190  A    between atoms: _475  and  _476
REMARK  191  A    between atoms: _475  and  _478
REMARK  192  A    between atoms: _478  and  _479
REMARK  193  A    between atoms: _482  and  _484
REMARK  194  A    between atoms: _484  and  _485
REMARK  195  A    between atoms: _487  and  _489
REMARK  196  A    between atoms: _489  and  _490
REMARK  197  A    between atoms: _489  and  _492
REMARK  198  A    between atoms: _492  and  _493
REMARK  199  A    between atoms: _493  and  _494
REMARK  200  A    between atoms: _494  and  _495
REMARK  201  A    between atoms: _504  and  _506
REMARK  202  A    between atoms: _506  and  _507
REMARK  203  A    between atoms: _506  and  _509
REMARK  204  A    between atoms: _509  and  _510
REMARK                            x       y       z     vdW  Elec       q    Type
REMARK                         _______ _______ _______ _____ _____    ______ ____
ROOT
ATOM      1  O   HOH     1       0.363  -8.366 -16.926  0.00  0.00    +0.000 OA
ENDROOT
TORSDOF 0
REMARK  Name = ../refined-set-2016/3t3c/3t3c_pocket.pdb
REMARK  204 active torsions:
REMARK  status: ('A' for Active; 'I' for Inactive)
REMARK    1  A    between atoms: _1  and  _3
REMARK    2  A    between atoms: _3  and  _4
REMARK    3  A    between atoms: _3  and  _6
REMARK    4  A    between atoms: _6  and  _7
REMARK    5  A    between atoms: _7  and  _8
REMARK    6  A    between atoms: _8  and  _9
REMARK    7  A    between atoms: _18  and  _20
REMARK    8  A    between atoms: _20  and  _21
REMARK    9  A    between atoms: _20  and  _23
REMARK   10  A    between atoms: _23  and  _24
REMARK   11  A    between atoms: _27  and  _29
REMARK   12  A    between atoms: _29  and  _30
REMARK   13  A    between atoms: _29  and  _32
REMARK   14  A    between atoms: _32  and  _33
REMARK   15  A    between atoms: _36  and  _38
REMARK   16  A    between atoms: _38  and  _39
REMARK   17  A    between atoms: _38  and  _41
REMARK   18  A    between atoms: _41  and  _42
REMARK   19  A    between atoms: _45  and  _47
REMARK   20  A    between atoms: _47  and  _48
REMARK   21  A    between atoms: _47  and  _50
REMARK   22  A    between atoms: _50  and  _51
REMARK   23  A    between atoms: _54  and  _56
REMARK   24  A    between atoms: _56  and  _57
REMARK   25  A    between atoms: _59  and  _61
REMARK   26  A    between atoms: _61  and  _62
REMARK   27  A    between atoms: _65  and  _67
REMARK   28  A    between atoms: _67  and  _68
REMARK   29  A    between atoms: _67  and  _70
REMARK   30  A    between atoms: _70  and  _71
REMARK   31  A    between atoms: _74  and  _76
REMARK   32  A    between atoms: _76  and  _77
REMARK   33  A    between atoms: _76  and  _79
REMARK   34  A    between atoms: _79  and  _80
REMARK   35  A    between atoms: _83  and  _85
REMARK   36  A    between atoms: _85  and  _86
REMARK   37  A    between atoms: _85  and  _88
REMARK   38  A    between atoms: _88  and  _89
REMARK   39  A    between atoms: _92  and  _94
REMARK   40  A    between atoms: _94  and  _95
REMARK   41  A    between atoms: _94  and  _97
REMARK   42  A    between atoms: _100  and  _102
REMARK   43  A    between atoms: _102  and  _103
REMARK   44  A    between atoms: _102  and  _105
REMARK   45  A    between atoms: _105  and  _106
REMARK   46  A    between atoms: _109  and  _111
REMARK   47  A    between atoms: _111  and  _112
REMARK   48  A    between atoms: _115  and  _117
REMARK   49  A    between atoms: _117  and  _118
REMARK   50  A    between atoms: _120  and  _122
REMARK   51  A    between atoms: _122  and  _123
REMARK   52  A    between atoms: _122  and  _125
REMARK   53  A    between atoms: _125  and  _126
REMARK   54  A    between atoms: _129  and  _131
REMARK   55  A    between atoms: _131  and  _132
REMARK   56  A    between atoms: _134  and  _136
REMARK   57  A    between atoms: _136  and  _137
REMARK   58  A    between atoms: _139  and  _141
REMARK   59  A    between atoms: _141  and  _142
REMARK   60  A    between atoms: _141  and  _144
REMARK   61  A    between atoms: _147  and  _149
REMARK   62  A    between atoms: _149  and  _150
REMARK   63  A    between atoms: _149  and  _152
REMARK   64  A    between atoms: _152  and  _153
REMARK   65  A    between atoms: _156  and  _158
REMARK   66  A    between atoms: _158  and  _159
REMARK   67  A    between atoms: _158  and  _161
REMARK   68  A    between atoms: _161  and  _162
REMARK   69  A    between atoms: _166  and  _167
REMARK   70  A    between atoms: _172  and  _174
REMARK   71  A    between atoms: _174  and  _175
REMARK   72  A    between atoms: _178  and  _180
REMARK   73  A    between atoms: _180  and  _181
REMARK   74  A    between atoms: _180  and  _183
REMARK   75  A    between atoms: _183  and  _184
REMARK   76  A    between atoms: _189  and  _191
REMARK   77  A    between atoms: _191  and  _192
REMARK   78  A    between atoms: _191  and  _194
REMARK   79  A    between atoms: _197  and  _199
REMARK   80  A    between atoms: _199  and  _200
REMARK   81  A    between atoms: _199  and  _202
REMARK   82  A    between atoms: _202  and  _203
REMARK   83  A    between atoms: _206  and  _208
REMARK   84  A    between atoms: _208  and  _209
REMARK   85  A    between atoms: _211  and  _213
REMARK   86  A    between atoms: _213  and  _214
REMARK   87  A    between atoms: _213  and  _216
REMARK   88  A    between atoms: _216  and  _217
REMARK   89  A    between atoms: _217  and  _218
REMARK   90  A    between atoms: _218  and  _219
REMARK   91  A    between atoms: _228  and  _230
REMARK   92  A    between atoms: _230  and  _231
REMARK   93  A    between atoms: _230  and  _233
REMARK   94  A    between atoms: _233  and  _234
REMARK   95  A    between atoms: _239  and  _241
REMARK   96  A    between atoms: _241  and  _242
REMARK   97  A    between atoms: _241  and  _244
REMARK   98  A    between atoms: _244  and  _245
REMARK   99  A    between atoms: _245  and  _246
REMARK  100  A    between atoms: _246  and  _247
REMARK  101  A    between atoms: _256  and  _258
REMARK  102  A    between atoms: _258  and  _259
REMARK  103  A    between atoms: _258  and  _261
REMARK  104  A    between atoms: _261  and  _262
REMARK  105  A    between atoms: _265  and  _267
REMARK  106  A    between atoms: _267  and  _268
REMARK  107  A    between atoms: _267  and  _270
REMARK  108  A    between atoms: _270  and  _271
REMARK  109  A    between atoms: _274  and  _276
REMARK  110  A    between atoms: _276  and  _277
REMARK  111  A    between atoms: _276  and  _279
REMARK  112  A    between atoms: _279  and  _280
REMARK  113  A    between atoms: _283  and  _285
REMARK  114  A    between atoms: _285  and  _286
REMARK  115  A    between atoms: _285  and  _288
REMARK  116  A    between atoms: _288  and  _289
REMARK  117  A    between atoms: _292  and  _294
REMARK  118  A    between atoms: _294  and  _295
REMARK  119  A    between atoms: _297  and  _299
REMARK  120  A    between atoms: _299  and  _300
REMARK  121  A    between atoms: _303  and  _305
REMARK  122  A    between atoms: _305  and  _306
REMARK  123  A    between atoms: _305  and  _308
REMARK  124  A    between atoms: _308  and  _309
REMARK  125  A    between atoms: _312  and  _314
REMARK  126  A    between atoms: _314  and  _315
REMARK  127  A    between atoms: _314  and  _317
REMARK  128  A    between atoms: _317  and  _318
REMARK  129  A    between atoms: _321  and  _323
REMARK  130  A    between atoms: _323  and  _324
REMARK  131  A    between atoms: _323  and  _326
REMARK  132  A    between atoms: _326  and  _327
REMARK  133  A    between atoms: _330  and  _332
REMARK  134  A    between atoms: _332  and  _333
REMARK  135  A    between atoms: _332  and  _335
REMARK  136  A    between atoms: _338  and  _340
REMARK  137  A    between atoms: _340  and  _341
REMARK  138  A    between atoms: _340  and  _343
REMARK  139  A    between atoms: _343  and  _344
REMARK  140  A    between atoms: _347  and  _349
REMARK  141  A    between atoms: _349  and  _350
REMARK  142  A    between atoms: _349  and  _352
REMARK  143  A    between atoms: _352  and  _353
REMARK  144  A    between atoms: _353  and  _354
REMARK  145  A    between atoms: _356  and  _358
REMARK  146  A    between atoms: _358  and  _359
REMARK  147  A    between atoms: _358  and  _361
REMARK  148  A    between atoms: _361  and  _362
REMARK  149  A    between atoms: _365  and  _367
REMARK  150  A    between atoms: _367  and  _368
REMARK  151  A    between atoms: _371  and  _373
REMARK  152  A    between atoms: _373  and  _374
REMARK  153  A    between atoms: _376  and  _378
REMARK  154  A    between atoms: _378  and  _379
REMARK  155  A    between atoms: _378  and  _381
REMARK  156  A    between atoms: _381  and  _382
REMARK  157  A    between atoms: _385  and  _387
REMARK  158  A    between atoms: _387  and  _388
REMARK  159  A    between atoms: _390  and  _392
REMARK  160  A    between atoms: _392  and  _393
REMARK  161  A    between atoms: _395  and  _397
REMARK  162  A    between atoms: _397  and  _398
REMARK  163  A    between atoms: _397  and  _400
REMARK  164  A    between atoms: _400  and  _401
REMARK  165  A    between atoms: _407  and  _409
REMARK  166  A    between atoms: _409  and  _410
REMARK  167  A    between atoms: _409  and  _412
REMARK  168  A    between atoms: _415  and  _417
REMARK  169  A    between atoms: _417  and  _418
REMARK  170  A    between atoms: _417  and  _420
REMARK  171  A    between atoms: _423  and  _425
REMARK  172  A    between atoms: _425  and  _426
REMARK  173  A    between atoms: _425  and  _428
REMARK  174  A    between atoms: _428  and  _429
REMARK  175  A    between atoms: _432  and  _434
REMARK  176  A    between atoms: _434  and  _435
REMARK  177  A    between atoms: _434  and  _437
REMARK  178  A    between atoms: _437  and  _438
REMARK  179  A    between atoms: _442  and  _443
REMARK  180  A    between atoms: _448  and  _450
REMARK  181  A    between atoms: _450  and  _451
REMARK  182  A    between atoms: _454  and  _456
REMARK  183  A    between atoms: _456  and  _457
REMARK  184  A    between atoms: _456  and  _459
REMARK  185  A    between atoms: _459  and  _460
REMARK  186  A    between atoms: _465  and  _467
REMARK  187  A    between atoms: _467  and  _468
REMARK  188  A    between atoms: _467  and  _470
REMARK  189  A    between atoms: _473  and  _475
REMARK  190  A    between atoms: _475  and  _476
REMARK  191  A    between atoms: _475  and  _478
REMARK  192  A    between atoms: _478  and  _479
REMARK  193  A    between atoms: _482  and  _484
REMARK  194  A    between atoms: _484  and  _485
REMARK  195  A    between atoms: _487  and  _489
REMARK  196  A    between atoms: _489  and  _490
REMARK  197  A    between atoms: _489  and  _492
REMARK  198  A    between atoms: _492  and  _493
REMARK  199  A    between atoms: _493  and  _494
REMARK  200  A    between atoms: _494  and  _495
REMARK  201  A    between atoms: _504  and  _506
REMARK  202  A    between atoms: _506  and  _507
REMARK  203  A    between atoms: _506  and  _509
REMARK  204  A    between atoms: _509  and  _510
REMARK                            x       y       z     vdW  Elec       q    Type
REMARK                         _______ _______ _______ _____ _____    ______ ____
ROOT
ATOM      1  O   HOH     1       7.668  -3.328  -9.448  0.00  0.00    +0.000 OA
ENDROOT
TORSDOF 0
