REMARK  Name = ../refined-set-2016/4agl/4agl_pocket.pdb
REMARK  89 active torsions:
REMARK  status: ('A' for Active; 'I' for Inactive)
REMARK    1  A    between atoms: _1  and  _3
REMARK    2  A    between atoms: _3  and  _4
REMARK    3  A    between atoms: _3  and  _6
REMARK    4  A    between atoms: _6  and  _7
REMARK    5  A    between atoms: _12  and  _13
REMARK    6  A    between atoms: _15  and  _17
REMARK    7  A    between atoms: _17  and  _18
REMARK    8  A    between atoms: _17  and  _20
REMARK    9  A    between atoms: _20  and  _21
REMARK   10  A    between atoms: _27  and  _29
REMARK   11  A    between atoms: _29  and  _30
REMARK   12  A    between atoms: _29  and  _32
REMARK   13  A    between atoms: _32  and  _33
REMARK   14  A    between atoms: _33  and  _34
REMARK   15  A    between atoms: _34  and  _35
REMARK   16  A    between atoms: _44  and  _46
REMARK   17  A    between atoms: _46  and  _47
REMARK   18  A    between atoms: _46  and  _49
REMARK   19  A    between atoms: _49  and  _50
REMARK   20  A    between atoms: _50  and  _51
REMARK   21  A    between atoms: _56  and  _58
REMARK   22  A    between atoms: _58  and  _59
REMARK   23  A    between atoms: _58  and  _61
REMARK   24  A    between atoms: _61  and  _62
REMARK   25  A    between atoms: _65  and  _67
REMARK   26  A    between atoms: _67  and  _68
REMARK   27  A    between atoms: _67  and  _70
REMARK   28  A    between atoms: _70  and  _71
REMARK   29  A    between atoms: _81  and  _83
REMARK   30  A    between atoms: _83  and  _84
REMARK   31  A    between atoms: _83  and  _86
REMARK   32  A    between atoms: _89  and  _91
REMARK   33  A    between atoms: _91  and  _92
REMARK   34  A    between atoms: _91  and  _94
REMARK   35  A    between atoms: _94  and  _95
REMARK   36  A    between atoms: _98  and  _100
REMARK   37  A    between atoms: _100  and  _101
REMARK   38  A    between atoms: _100  and  _103
REMARK   39  A    between atoms: _103  and  _104
REMARK   40  A    between atoms: _106  and  _108
REMARK   41  A    between atoms: _108  and  _109
REMARK   42  A    between atoms: _108  and  _111
REMARK   43  A    between atoms: _111  and  _112
REMARK   44  A    between atoms: _116  and  _117
REMARK   45  A    between atoms: _123  and  _124
REMARK   46  A    between atoms: _130  and  _131
REMARK   47  A    between atoms: _136  and  _138
REMARK   48  A    between atoms: _138  and  _139
REMARK   49  A    between atoms: _141  and  _143
REMARK   50  A    between atoms: _143  and  _144
REMARK   51  A    between atoms: _143  and  _146
REMARK   52  A    between atoms: _146  and  _147
REMARK   53  A    between atoms: _150  and  _152
REMARK   54  A    between atoms: _152  and  _153
REMARK   55  A    between atoms: _152  and  _155
REMARK   56  A    between atoms: _159  and  _160
REMARK   57  A    between atoms: _165  and  _167
REMARK   58  A    between atoms: _167  and  _168
REMARK   59  A    between atoms: _167  and  _170
REMARK   60  A    between atoms: _172  and  _174
REMARK   61  A    between atoms: _174  and  _175
REMARK   62  A    between atoms: _174  and  _177
REMARK   63  A    between atoms: _177  and  _178
REMARK   64  A    between atoms: _178  and  _179
REMARK   65  A    between atoms: _183  and  _184
REMARK   66  A    between atoms: _190  and  _191
REMARK   67  A    between atoms: _196  and  _198
REMARK   68  A    between atoms: _198  and  _199
REMARK   69  A    between atoms: _198  and  _201
REMARK   70  A    between atoms: _201  and  _202
REMARK   71  A    between atoms: _204  and  _206
REMARK   72  A    between atoms: _206  and  _207
REMARK   73  A    between atoms: _206  and  _209
REMARK   74  A    between atoms: _209  and  _210
REMARK   75  A    between atoms: _213  and  _215
REMARK   76  A    between atoms: _215  and  _216
REMARK   77  A    between atoms: _215  and  _218
REMARK   78  A    between atoms: _220  and  _222
REMARK   79  A    between atoms: _222  and  _223
REMARK   80  A    between atoms: _222  and  _225
REMARK   81  A    between atoms: _225  and  _226
REMARK   82  A    between atoms: _229  and  _231
REMARK   83  A    between atoms: _231  and  _232
REMARK   84  A    between atoms: _231  and  _234
REMARK   85  A    between atoms: _234  and  _235
REMARK   86  A    between atoms: _238  and  _240
REMARK   87  A    between atoms: _240  and  _241
REMARK   88  A    between atoms: _240  and  _243
REMARK   89  A    between atoms: _243  and  _244
REMARK                            x       y       z     vdW  Elec       q    Type
REMARK                         _______ _______ _______ _____ _____    ______ ____
ROOT
ATOM      1  CG  TYR A   1      99.939  94.698 -47.443  0.00  0.00    -0.020 A 
ATOM      2  CD2 TYR A   1     100.707  93.569 -47.708  0.00  0.00    -0.001 A 
ATOM      3  CE2 TYR A   1     100.871  93.111 -49.021  0.00  0.00    +0.036 A 
ATOM      4  CZ  TYR A   1     100.280  93.799 -50.058  0.00  0.00    +0.134 A 
ATOM      5  CE1 TYR A   1      99.529  94.924 -49.810  0.00  0.00    +0.036 A 
ATOM      6  CD1 TYR A   1      99.362  95.370 -48.515  0.00  0.00    -0.001 A 
ENDROOT
BRANCH   4   7
ATOM      7  OH  TYR A   1     100.430  93.373 -51.366  0.00  0.00    -0.506 OA
ATOM      8  HH  TYR A   1      99.939  93.985 -51.970  0.00  0.00    +0.292 HD
ENDBRANCH   4   7
BRANCH   1   9
ATOM      9  CB  TYR A   1      99.775  95.221 -46.039  0.00  0.00    +0.051 C 
BRANCH   9  10
ATOM     10  CA  TYR A   1     100.649  96.461 -45.828  0.00  0.00    +0.137 C 
BRANCH  10  11
ATOM     11  N   TYR A   1     102.040  96.164 -46.132  0.00  0.00    -0.239 NA
ATOM     12  H   TYR A   1     102.478  95.302 -45.748  0.00  0.00    +0.142 HD
ENDBRANCH  10  11
BRANCH  10  13
ATOM     13  C   TYR A   1     100.432  97.071 -44.449  0.00  0.00    +0.224 C 
ATOM     14  O   TYR A   1      99.303  97.372 -44.092  0.00  0.00    -0.287 OA
ENDBRANCH  10  13
ENDBRANCH   9  10
ENDBRANCH   1   9
TORSDOF 5
REMARK  Name = ../refined-set-2016/4agl/4agl_pocket.pdb
REMARK  89 active torsions:
REMARK  status: ('A' for Active; 'I' for Inactive)
REMARK    1  A    between atoms: _1  and  _3
REMARK    2  A    between atoms: _3  and  _4
REMARK    3  A    between atoms: _3  and  _6
REMARK    4  A    between atoms: _6  and  _7
REMARK    5  A    between atoms: _12  and  _13
REMARK    6  A    between atoms: _15  and  _17
REMARK    7  A    between atoms: _17  and  _18
REMARK    8  A    between atoms: _17  and  _20
REMARK    9  A    between atoms: _20  and  _21
REMARK   10  A    between atoms: _27  and  _29
REMARK   11  A    between atoms: _29  and  _30
REMARK   12  A    between atoms: _29  and  _32
REMARK   13  A    between atoms: _32  and  _33
REMARK   14  A    between atoms: _33  and  _34
REMARK   15  A    between atoms: _34  and  _35
REMARK   16  A    between atoms: _44  and  _46
REMARK   17  A    between atoms: _46  and  _47
REMARK   18  A    between atoms: _46  and  _49
REMARK   19  A    between atoms: _49  and  _50
REMARK   20  A    between atoms: _50  and  _51
REMARK   21  A    between atoms: _56  and  _58
REMARK   22  A    between atoms: _58  and  _59
REMARK   23  A    between atoms: _58  and  _61
REMARK   24  A    between atoms: _61  and  _62
REMARK   25  A    between atoms: _65  and  _67
REMARK   26  A    between atoms: _67  and  _68
REMARK   27  A    between atoms: _67  and  _70
REMARK   28  A    between atoms: _70  and  _71
REMARK   29  A    between atoms: _81  and  _83
REMARK   30  A    between atoms: _83  and  _84
REMARK   31  A    between atoms: _83  and  _86
REMARK   32  A    between atoms: _89  and  _91
REMARK   33  A    between atoms: _91  and  _92
REMARK   34  A    between atoms: _91  and  _94
REMARK   35  A    between atoms: _94  and  _95
REMARK   36  A    between atoms: _98  and  _100
REMARK   37  A    between atoms: _100  and  _101
REMARK   38  A    between atoms: _100  and  _103
REMARK   39  A    between atoms: _103  and  _104
REMARK   40  A    between atoms: _106  and  _108
REMARK   41  A    between atoms: _108  and  _109
REMARK   42  A    between atoms: _108  and  _111
REMARK   43  A    between atoms: _111  and  _112
REMARK   44  A    between atoms: _116  and  _117
REMARK   45  A    between atoms: _123  and  _124
REMARK   46  A    between atoms: _130  and  _131
REMARK   47  A    between atoms: _136  and  _138
REMARK   48  A    between atoms: _138  and  _139
REMARK   49  A    between atoms: _141  and  _143
REMARK   50  A    between atoms: _143  and  _144
REMARK   51  A    between atoms: _143  and  _146
REMARK   52  A    between atoms: _146  and  _147
REMARK   53  A    between atoms: _150  and  _152
REMARK   54  A    between atoms: _152  and  _153
REMARK   55  A    between atoms: _152  and  _155
REMARK   56  A    between atoms: _159  and  _160
REMARK   57  A    between atoms: _165  and  _167
REMARK   58  A    between atoms: _167  and  _168
REMARK   59  A    between atoms: _167  and  _170
REMARK   60  A    between atoms: _172  and  _174
REMARK   61  A    between atoms: _174  and  _175
REMARK   62  A    between atoms: _174  and  _177
REMARK   63  A    between atoms: _177  and  _178
REMARK   64  A    between atoms: _178  and  _179
REMARK   65  A    between atoms: _183  and  _184
REMARK   66  A    between atoms: _190  and  _191
REMARK   67  A    between atoms: _196  and  _198
REMARK   68  A    between atoms: _198  and  _199
REMARK   69  A    between atoms: _198  and  _201
REMARK   70  A    between atoms: _201  and  _202
REMARK   71  A    between atoms: _204  and  _206
REMARK   72  A    between atoms: _206  and  _207
REMARK   73  A    between atoms: _206  and  _209
REMARK   74  A    between atoms: _209  and  _210
REMARK   75  A    between atoms: _213  and  _215
REMARK   76  A    between atoms: _215  and  _216
REMARK   77  A    between atoms: _215  and  _218
REMARK   78  A    between atoms: _220  and  _222
REMARK   79  A    between atoms: _222  and  _223
REMARK   80  A    between atoms: _222  and  _225
REMARK   81  A    between atoms: _225  and  _226
REMARK   82  A    between atoms: _229  and  _231
REMARK   83  A    between atoms: _231  and  _232
REMARK   84  A    between atoms: _231  and  _234
REMARK   85  A    between atoms: _234  and  _235
REMARK   86  A    between atoms: _238  and  _240
REMARK   87  A    between atoms: _240  and  _241
REMARK   88  A    between atoms: _240  and  _243
REMARK   89  A    between atoms: _243  and  _244
REMARK                            x       y       z     vdW  Elec       q    Type
REMARK                         _______ _______ _______ _____ _____    ______ ____
ROOT
ATOM      1  CA  ARG A   2     100.117  94.706 -36.735  0.00  0.00    +0.137 C 
ENDROOT
BRANCH   1   3
ATOM      2  C   PHE A   1     100.824  94.820 -39.066  0.00  0.00    +0.239 C 
ATOM      3  N   ARG A   2      99.841  94.845 -38.169  0.00  0.00    -0.298 N 
ATOM      4  H   ARG A   2      98.859  94.965 -38.491  0.00  0.00    +0.150 HD
ATOM      5  O   PHE A   1     102.010  94.846 -38.750  0.00  0.00    -0.274 OA
BRANCH   2   6
ATOM      6  CA  PHE A   1     100.411  94.725 -40.532  0.00  0.00    +0.149 C 
BRANCH   6   7
ATOM      7  N   PHE A   1     101.061  95.722 -41.391  0.00  0.00    -0.238 NA
ATOM      8  H   PHE A   1     101.820  95.414 -42.032  0.00  0.00    +0.142 HD
ENDBRANCH   6   7
BRANCH   6   9
ATOM      9  CB  PHE A   1     100.742  93.326 -41.060  0.00  0.00    +0.053 C 
BRANCH   9  10
ATOM     10  CG  PHE A   1     100.162  92.208 -40.231  0.00  0.00    -0.020 A 
ATOM     11  CD2 PHE A   1     100.983  91.428 -39.420  0.00  0.00    -0.004 A 
ATOM     12  CE2 PHE A   1     100.451  90.383 -38.648  0.00  0.00    -0.000 A 
ATOM     13  CZ  PHE A   1      99.089  90.131 -38.684  0.00  0.00    -0.000 A 
ATOM     14  CE1 PHE A   1      98.256  90.911 -39.483  0.00  0.00    -0.000 A 
ATOM     15  CD1 PHE A   1      98.799  91.950 -40.253  0.00  0.00    -0.004 A 
ENDBRANCH   9  10
ENDBRANCH   6   9
ENDBRANCH   2   6
ENDBRANCH   1   3
BRANCH   1  16
ATOM     16  C   ARG A   2      98.875  94.234 -35.990  0.00  0.00    +0.227 C 
ATOM     17  O   ARG A   2      97.763  94.300 -36.523  0.00  0.00    -0.286 OA
ENDBRANCH   1  16
BRANCH   1  18
ATOM     18  CB  ARG A   2     100.631  96.025 -36.127  0.00  0.00    +0.031 C 
BRANCH  18  19
ATOM     19  CG  ARG A   2      99.582  97.133 -35.981  0.00  0.00    +0.045 C 
BRANCH  19  20
ATOM     20  CD  ARG A   2      99.377  97.881 -37.322  0.00  0.00    +0.174 C 
BRANCH  20  21
ATOM     21  NE  ARG A   2      98.470  99.013 -37.149  0.00  0.00    -0.265 N 
ATOM     22  HE  ARG A   2      98.110  99.206 -36.193  0.00  0.00    +0.259 HD
ATOM     23  CZ  ARG A   2      98.074  99.814 -38.137  0.00  0.00    +0.342 C 
ATOM     24  NH2 ARG A   2      97.241 100.821 -37.886  0.00  0.00    -0.292 N 
ATOM     25 HH21 ARG A   2      96.898 100.983 -36.918  0.00  0.00    +0.255 HD
ATOM     26 HH22 ARG A   2      96.933 101.446 -38.658  0.00  0.00    +0.255 HD
ATOM     27  NH1 ARG A   2      98.506  99.611 -39.376  0.00  0.00    -0.292 N 
ATOM     28 HH11 ARG A   2      99.156  98.824 -39.578  0.00  0.00    +0.255 HD
ATOM     29 HH12 ARG A   2      98.195 100.239 -40.145  0.00  0.00    +0.255 HD
ENDBRANCH  20  21
ENDBRANCH  19  20
ENDBRANCH  18  19
ENDBRANCH   1  18
TORSDOF 10
REMARK  Name = ../refined-set-2016/4agl/4agl_pocket.pdb
REMARK  89 active torsions:
REMARK  status: ('A' for Active; 'I' for Inactive)
REMARK    1  A    between atoms: _1  and  _3
REMARK    2  A    between atoms: _3  and  _4
REMARK    3  A    between atoms: _3  and  _6
REMARK    4  A    between atoms: _6  and  _7
REMARK    5  A    between atoms: _12  and  _13
REMARK    6  A    between atoms: _15  and  _17
REMARK    7  A    between atoms: _17  and  _18
REMARK    8  A    between atoms: _17  and  _20
REMARK    9  A    between atoms: _20  and  _21
REMARK   10  A    between atoms: _27  and  _29
REMARK   11  A    between atoms: _29  and  _30
REMARK   12  A    between atoms: _29  and  _32
REMARK   13  A    between atoms: _32  and  _33
REMARK   14  A    between atoms: _33  and  _34
REMARK   15  A    between atoms: _34  and  _35
REMARK   16  A    between atoms: _44  and  _46
REMARK   17  A    between atoms: _46  and  _47
REMARK   18  A    between atoms: _46  and  _49
REMARK   19  A    between atoms: _49  and  _50
REMARK   20  A    between atoms: _50  and  _51
REMARK   21  A    between atoms: _56  and  _58
REMARK   22  A    between atoms: _58  and  _59
REMARK   23  A    between atoms: _58  and  _61
REMARK   24  A    between atoms: _61  and  _62
REMARK   25  A    between atoms: _65  and  _67
REMARK   26  A    between atoms: _67  and  _68
REMARK   27  A    between atoms: _67  and  _70
REMARK   28  A    between atoms: _70  and  _71
REMARK   29  A    between atoms: _81  and  _83
REMARK   30  A    between atoms: _83  and  _84
REMARK   31  A    between atoms: _83  and  _86
REMARK   32  A    between atoms: _89  and  _91
REMARK   33  A    between atoms: _91  and  _92
REMARK   34  A    between atoms: _91  and  _94
REMARK   35  A    between atoms: _94  and  _95
REMARK   36  A    between atoms: _98  and  _100
REMARK   37  A    between atoms: _100  and  _101
REMARK   38  A    between atoms: _100  and  _103
REMARK   39  A    between atoms: _103  and  _104
REMARK   40  A    between atoms: _106  and  _108
REMARK   41  A    between atoms: _108  and  _109
REMARK   42  A    between atoms: _108  and  _111
REMARK   43  A    between atoms: _111  and  _112
REMARK   44  A    between atoms: _116  and  _117
REMARK   45  A    between atoms: _123  and  _124
REMARK   46  A    between atoms: _130  and  _131
REMARK   47  A    between atoms: _136  and  _138
REMARK   48  A    between atoms: _138  and  _139
REMARK   49  A    between atoms: _141  and  _143
REMARK   50  A    between atoms: _143  and  _144
REMARK   51  A    between atoms: _143  and  _146
REMARK   52  A    between atoms: _146  and  _147
REMARK   53  A    between atoms: _150  and  _152
REMARK   54  A    between atoms: _152  and  _153
REMARK   55  A    between atoms: _152  and  _155
REMARK   56  A    between atoms: _159  and  _160
REMARK   57  A    between atoms: _165  and  _167
REMARK   58  A    between atoms: _167  and  _168
REMARK   59  A    between atoms: _167  and  _170
REMARK   60  A    between atoms: _172  and  _174
REMARK   61  A    between atoms: _174  and  _175
REMARK   62  A    between atoms: _174  and  _177
REMARK   63  A    between atoms: _177  and  _178
REMARK   64  A    between atoms: _178  and  _179
REMARK   65  A    between atoms: _183  and  _184
REMARK   66  A    between atoms: _190  and  _191
REMARK   67  A    between atoms: _196  and  _198
REMARK   68  A    between atoms: _198  and  _199
REMARK   69  A    between atoms: _198  and  _201
REMARK   70  A    between atoms: _201  and  _202
REMARK   71  A    between atoms: _204  and  _206
REMARK   72  A    between atoms: _206  and  _207
REMARK   73  A    between atoms: _206  and  _209
REMARK   74  A    between atoms: _209  and  _210
REMARK   75  A    between atoms: _213  and  _215
REMARK   76  A    between atoms: _215  and  _216
REMARK   77  A    between atoms: _215  and  _218
REMARK   78  A    between atoms: _220  and  _222
REMARK   79  A    between atoms: _222  and  _223
REMARK   80  A    between atoms: _222  and  _225
REMARK   81  A    between atoms: _225  and  _226
REMARK   82  A    between atoms: _229  and  _231
REMARK   83  A    between atoms: _231  and  _232
REMARK   84  A    between atoms: _231  and  _234
REMARK   85  A    between atoms: _234  and  _235
REMARK   86  A    between atoms: _238  and  _240
REMARK   87  A    between atoms: _240  and  _241
REMARK   88  A    between atoms: _240  and  _243
REMARK   89  A    between atoms: _243  and  _244
REMARK                            x       y       z     vdW  Elec       q    Type
REMARK                         _______ _______ _______ _____ _____    ______ ____
ROOT
ATOM      1  C   ASP A   5      96.556 100.227 -44.947  0.00  0.00    +0.241 C 
ATOM      2  O   ASP A   5      95.862 101.153 -45.371  0.00  0.00    -0.273 OA
ATOM      3  N   SER A   6      96.815  99.125 -45.648  0.00  0.00    -0.295 N 
ATOM      4  H   SER A   6      97.418  98.387 -45.232  0.00  0.00    +0.150 HD
ENDROOT
BRANCH   3   5
ATOM      5  CA  SER A   6      96.271  98.931 -46.988  0.00  0.00    +0.178 C 
BRANCH   5   6
ATOM      6  C   SER A   6      95.836  97.482 -47.194  0.00  0.00    +0.243 C 
ATOM      7  O   SER A   6      96.291  96.580 -46.480  0.00  0.00    -0.273 OA
ATOM      8  N   THR A   7      94.935  97.276 -48.150  0.00  0.00    -0.295 N 
ATOM      9  H   THR A   7      94.658  98.071 -48.760  0.00  0.00    +0.150 HD
BRANCH   8  10
ATOM     10  CA  THR A   7      94.321  95.968 -48.371  0.00  0.00    +0.176 C 
BRANCH  10  11
ATOM     11  C   THR A   7      95.289  94.992 -49.036  0.00  0.00    +0.246 C 
ATOM     12  N   PRO A   8      95.511  93.834 -48.402  0.00  0.00    -0.272 N 
ATOM     13  CD  PRO A   8      95.010  93.458 -47.069  0.00  0.00    +0.094 C 
ATOM     14  CG  PRO A   8      96.009  92.426 -46.619  0.00  0.00    +0.024 C 
ATOM     15  CB  PRO A   8      96.669  91.852 -47.821  0.00  0.00    +0.031 C 
ATOM     16  CA  PRO A   8      96.398  92.820 -48.983  0.00  0.00    +0.152 C 
ATOM     17  O   THR A   7      95.830  95.273 -50.103  0.00  0.00    -0.273 OA
BRANCH  16  18
ATOM     18  C   PRO A   8      95.667  92.081 -50.096  0.00  0.00    +0.244 C 
ATOM     19  O   PRO A   8      94.439  92.147 -50.176  0.00  0.00    -0.273 OA
ATOM     20  N   PRO A   9      96.414  91.382 -50.960  0.00  0.00    -0.272 N 
ATOM     21  CD  PRO A   9      97.882  91.364 -51.039  0.00  0.00    +0.094 C 
ATOM     22  CG  PRO A   9      98.125  91.029 -52.497  0.00  0.00    +0.024 C 
ATOM     23  CB  PRO A   9      96.993  90.132 -52.866  0.00  0.00    +0.031 C 
ATOM     24  CA  PRO A   9      95.789  90.690 -52.094  0.00  0.00    +0.152 C 
BRANCH  24  25
ATOM     25  C   PRO A   9      94.827  89.561 -51.712  0.00  0.00    +0.244 C 
ATOM     26  O   PRO A   9      94.961  88.943 -50.649  0.00  0.00    -0.273 OA
ATOM     27  N   PRO A  10      93.854  89.271 -52.588  0.00  0.00    -0.272 N 
ATOM     28  CA  PRO A  10      93.017  88.092 -52.348  0.00  0.00    +0.152 C 
ATOM     29  CB  PRO A  10      92.179  87.982 -53.630  0.00  0.00    +0.031 C 
ATOM     30  CG  PRO A  10      92.153  89.391 -54.186  0.00  0.00    +0.024 C 
ATOM     31  CD  PRO A  10      93.505  89.970 -53.843  0.00  0.00    +0.094 C 
BRANCH  28  32
ATOM     32  C   PRO A  10      93.889  86.848 -52.192  0.00  0.00    +0.241 C 
ATOM     33  N   GLY A  11      93.574  85.996 -51.225  0.00  0.00    -0.295 N 
ATOM     34  H   GLY A  11      92.747  86.180 -50.621  0.00  0.00    +0.150 HD
ATOM     35  O   PRO A  10      94.846  86.672 -52.945  0.00  0.00    -0.273 OA
BRANCH  33  36
ATOM     36  CA  GLY A  11      94.380  84.807 -51.007  0.00  0.00    +0.176 C 
BRANCH  36  37
ATOM     37  C   GLY A  11      95.378  84.971 -49.872  0.00  0.00    +0.243 C 
ATOM     38  N   THR A  12      95.472  86.179 -49.325  0.00  0.00    -0.296 N 
ATOM     39  H   THR A  12      94.931  86.972 -49.726  0.00  0.00    +0.150 HD
ATOM     40  O   GLY A  11      96.048  84.028 -49.483  0.00  0.00    -0.273 OA
BRANCH  38  41
ATOM     41  CA  THR A  12      96.329  86.400 -48.165  0.00  0.00    +0.164 C 
BRANCH  41  42
ATOM     42  CB  THR A  12      96.399  87.896 -47.843  0.00  0.00    +0.136 C 
ATOM     43  CG2 THR A  12      97.231  88.146 -46.589  0.00  0.00    +0.034 C 
BRANCH  42  44
ATOM     44  OG1 THR A  12      96.985  88.594 -48.955  0.00  0.00    -0.382 OA
ATOM     45  HG1 THR A  12      96.428  88.454 -49.762  0.00  0.00    +0.210 HD
ENDBRANCH  42  44
ENDBRANCH  41  42
BRANCH  41  46
ATOM     46  C   THR A  12      95.758  85.633 -46.978  0.00  0.00    +0.229 C 
ATOM     47  O   THR A  12      94.535  85.512 -46.842  0.00  0.00    -0.286 OA
ENDBRANCH  41  46
ENDBRANCH  38  41
ENDBRANCH  36  37
ENDBRANCH  33  36
ENDBRANCH  28  32
ENDBRANCH  24  25
ENDBRANCH  16  18
ENDBRANCH  10  11
BRANCH  10  48
ATOM     48  CB  THR A   7      93.049  96.090 -49.240  0.00  0.00    +0.137 C 
ATOM     49  CG2 THR A   7      92.395  94.724 -49.433  0.00  0.00    +0.034 C 
BRANCH  48  50
ATOM     50  OG1 THR A   7      92.117  96.985 -48.612  0.00  0.00    -0.382 OA
ATOM     51  HG1 THR A   7      92.534  97.877 -48.513  0.00  0.00    +0.210 HD
ENDBRANCH  48  50
ENDBRANCH  10  48
ENDBRANCH   8  10
ENDBRANCH   5   6
BRANCH   5  52
ATOM     52  CB  SER A   6      97.284  99.353 -48.055  0.00  0.00    +0.166 C 
BRANCH  52  53
ATOM     53  OG  SER A   6      98.535  98.725 -47.853  0.00  0.00    -0.380 OA
ATOM     54  H   SER A   6      98.890  98.977 -46.964  0.00  0.00    +0.211 HD
ENDBRANCH  52  53
ENDBRANCH   5  52
ENDBRANCH   3   5
BRANCH   1  55
ATOM     55  CA  ASP A   5      97.189 100.311 -43.574  0.00  0.00    +0.160 C 
BRANCH  55  58
ATOM     56  C   VAL A   4      96.356  98.411 -42.299  0.00  0.00    +0.241 C 
ATOM     57  O   VAL A   4      95.277  98.966 -42.079  0.00  0.00    -0.273 OA
ATOM     58  N   ASP A   5      97.347  98.983 -42.978  0.00  0.00    -0.297 N 
ATOM     59  H   ASP A   5      98.250  98.478 -43.087  0.00  0.00    +0.150 HD
BRANCH  56  60
ATOM     60  CA  VAL A   4      96.604  97.007 -41.791  0.00  0.00    +0.149 C 
BRANCH  60  63
ATOM     61  C   TRP A   3      96.136  96.044 -39.603  0.00  0.00    +0.241 C 
ATOM     62  O   TRP A   3      97.245  95.518 -39.539  0.00  0.00    -0.273 OA
ATOM     63  N   VAL A   4      95.710  96.721 -40.671  0.00  0.00    -0.297 N 
ATOM     64  H   VAL A   4      94.724  97.051 -40.707  0.00  0.00    +0.150 HD
BRANCH  61  65
ATOM     65  CA  TRP A   3      95.185  95.951 -38.436  0.00  0.00    +0.153 C 
BRANCH  65  67
ATOM     66  C   LEU A   2      94.114  93.845 -37.780  0.00  0.00    +0.241 C 
ATOM     67  N   TRP A   3      95.206  94.602 -37.870  0.00  0.00    -0.297 N 
ATOM     68  H   TRP A   3      96.109  94.219 -37.524  0.00  0.00    +0.150 HD
ATOM     69  O   LEU A   2      92.996  94.204 -38.172  0.00  0.00    -0.273 OA
BRANCH  66  70
ATOM     70  CA  LEU A   2      94.305  92.463 -37.173  0.00  0.00    +0.149 C 
BRANCH  70  73
ATOM     71  C   GLN A   1      93.722  92.244 -34.795  0.00  0.00    +0.238 C 
ATOM     72  O   GLN A   1      94.901  92.182 -34.426  0.00  0.00    -0.274 OA
ATOM     73  N   LEU A   2      93.349  92.295 -36.072  0.00  0.00    -0.297 N 
ATOM     74  H   LEU A   2      92.337  92.212 -36.299  0.00  0.00    +0.150 HD
BRANCH  71  75
ATOM     75  CA  GLN A   1      92.589  92.272 -33.781  0.00  0.00    +0.145 C 
BRANCH  75  76
ATOM     76  N   GLN A   1      92.870  91.430 -32.615  0.00  0.00    -0.238 NA
ATOM     77  H   GLN A   1      93.308  91.851 -31.771  0.00  0.00    +0.142 HD
ENDBRANCH  75  76
BRANCH  75  78
ATOM     78  CB  GLN A   1      92.373  93.732 -33.353  0.00  0.00    +0.036 C 
BRANCH  78  79
ATOM     79  CG  GLN A   1      91.242  93.909 -32.370  0.00  0.00    +0.087 C 
BRANCH  79  80
ATOM     80  CD  GLN A   1      91.143  95.323 -31.853  0.00  0.00    +0.219 C 
ATOM     81  NE2 GLN A   1      89.963  95.683 -31.368  0.00  0.00    -0.329 N 
ATOM     82 HE21 GLN A   1      89.833  96.635 -30.970  0.00  0.00    +0.145 HD
ATOM     83 HE22 GLN A   1      89.167  95.013 -31.385  0.00  0.00    +0.145 HD
ATOM     84  OE1 GLN A   1      92.120  96.076 -31.858  0.00  0.00    -0.275 OA
ENDBRANCH  79  80
ENDBRANCH  78  79
ENDBRANCH  75  78
ENDBRANCH  71  75
ENDBRANCH  70  73
BRANCH  70  85
ATOM     85  CB  LEU A   2      94.066  91.409 -38.257  0.00  0.00    +0.029 C 
BRANCH  85  86
ATOM     86  CG  LEU A   2      94.003  89.957 -37.775  0.00  0.00    +0.002 C 
ATOM     87  CD2 LEU A   2      95.306  89.554 -37.100  0.00  0.00    +0.000 C 
ATOM     88  CD1 LEU A   2      93.688  89.013 -38.938  0.00  0.00    +0.000 C 
ENDBRANCH  85  86
ENDBRANCH  70  85
ENDBRANCH  66  70
ENDBRANCH  65  67
BRANCH  65  89
ATOM     89  CB  TRP A   3      95.630  96.968 -37.377  0.00  0.00    +0.057 C 
BRANCH  89  90
ATOM     90  CG  TRP A   3      94.655  97.165 -36.263  0.00  0.00    -0.002 A 
ATOM     91  CD1 TRP A   3      94.604  96.480 -35.082  0.00  0.00    +0.068 A 
ATOM     92  NE1 TRP A   3      93.567  96.953 -34.304  0.00  0.00    -0.352 N 
ATOM     93  HE1 TRP A   3      93.313  96.605 -33.357  0.00  0.00    +0.166 HD
ATOM     94  CE2 TRP A   3      92.927  97.955 -34.983  0.00  0.00    +0.056 A 
ATOM     95  CZ2 TRP A   3      91.824  98.721 -34.618  0.00  0.00    +0.017 A 
ATOM     96  CH2 TRP A   3      91.393  99.670 -35.514  0.00  0.00    +0.001 A 
ATOM     97  CZ3 TRP A   3      92.017  99.846 -36.755  0.00  0.00    +0.000 A 
ATOM     98  CE3 TRP A   3      93.117  99.079 -37.121  0.00  0.00    +0.001 A 
ATOM     99  CD2 TRP A   3      93.585  98.114 -36.226  0.00  0.00    +0.013 A 
ENDBRANCH  89  90
ENDBRANCH  65  89
ENDBRANCH  61  65
ENDBRANCH  60  63
BRANCH  60 100
ATOM    100  CB  VAL A   4      96.411  96.018 -42.983  0.00  0.00    +0.027 C 
ATOM    101  CG2 VAL A   4      96.874  94.621 -42.613  0.00  0.00    +0.002 C 
ATOM    102  CG1 VAL A   4      94.956  96.018 -43.473  0.00  0.00    +0.002 C 
ENDBRANCH  60 100
ENDBRANCH  56  60
ENDBRANCH  55  58
BRANCH  55 103
ATOM    103  CB  ASP A   5      98.533 101.026 -43.703  0.00  0.00    +0.143 C 
BRANCH 103 104
ATOM    104  CG  ASP A   5      99.148 101.368 -42.362  0.00  0.00    +0.367 C 
ATOM    105  OD2 ASP A   5      98.399 101.695 -41.412  0.00  0.00    -0.246 OA
ATOM    106  OD1 ASP A   5     100.389 101.314 -42.271  0.00  0.00    -0.246 OA
ENDBRANCH 103 104
ENDBRANCH  55 103
ENDBRANCH   1  55
TORSDOF 37
REMARK  Name = ../refined-set-2016/4agl/4agl_pocket.pdb
REMARK  89 active torsions:
REMARK  status: ('A' for Active; 'I' for Inactive)
REMARK    1  A    between atoms: _1  and  _3
REMARK    2  A    between atoms: _3  and  _4
REMARK    3  A    between atoms: _3  and  _6
REMARK    4  A    between atoms: _6  and  _7
REMARK    5  A    between atoms: _12  and  _13
REMARK    6  A    between atoms: _15  and  _17
REMARK    7  A    between atoms: _17  and  _18
REMARK    8  A    between atoms: _17  and  _20
REMARK    9  A    between atoms: _20  and  _21
REMARK   10  A    between atoms: _27  and  _29
REMARK   11  A    between atoms: _29  and  _30
REMARK   12  A    between atoms: _29  and  _32
REMARK   13  A    between atoms: _32  and  _33
REMARK   14  A    between atoms: _33  and  _34
REMARK   15  A    between atoms: _34  and  _35
REMARK   16  A    between atoms: _44  and  _46
REMARK   17  A    between atoms: _46  and  _47
REMARK   18  A    between atoms: _46  and  _49
REMARK   19  A    between atoms: _49  and  _50
REMARK   20  A    between atoms: _50  and  _51
REMARK   21  A    between atoms: _56  and  _58
REMARK   22  A    between atoms: _58  and  _59
REMARK   23  A    between atoms: _58  and  _61
REMARK   24  A    between atoms: _61  and  _62
REMARK   25  A    between atoms: _65  and  _67
REMARK   26  A    between atoms: _67  and  _68
REMARK   27  A    between atoms: _67  and  _70
REMARK   28  A    between atoms: _70  and  _71
REMARK   29  A    between atoms: _81  and  _83
REMARK   30  A    between atoms: _83  and  _84
REMARK   31  A    between atoms: _83  and  _86
REMARK   32  A    between atoms: _89  and  _91
REMARK   33  A    between atoms: _91  and  _92
REMARK   34  A    between atoms: _91  and  _94
REMARK   35  A    between atoms: _94  and  _95
REMARK   36  A    between atoms: _98  and  _100
REMARK   37  A    between atoms: _100  and  _101
REMARK   38  A    between atoms: _100  and  _103
REMARK   39  A    between atoms: _103  and  _104
REMARK   40  A    between atoms: _106  and  _108
REMARK   41  A    between atoms: _108  and  _109
REMARK   42  A    between atoms: _108  and  _111
REMARK   43  A    between atoms: _111  and  _112
REMARK   44  A    between atoms: _116  and  _117
REMARK   45  A    between atoms: _123  and  _124
REMARK   46  A    between atoms: _130  and  _131
REMARK   47  A    between atoms: _136  and  _138
REMARK   48  A    between atoms: _138  and  _139
REMARK   49  A    between atoms: _141  and  _143
REMARK   50  A    between atoms: _143  and  _144
REMARK   51  A    between atoms: _143  and  _146
REMARK   52  A    between atoms: _146  and  _147
REMARK   53  A    between atoms: _150  and  _152
REMARK   54  A    between atoms: _152  and  _153
REMARK   55  A    between atoms: _152  and  _155
REMARK   56  A    between atoms: _159  and  _160
REMARK   57  A    between atoms: _165  and  _167
REMARK   58  A    between atoms: _167  and  _168
REMARK   59  A    between atoms: _167  and  _170
REMARK   60  A    between atoms: _172  and  _174
REMARK   61  A    between atoms: _174  and  _175
REMARK   62  A    between atoms: _174  and  _177
REMARK   63  A    between atoms: _177  and  _178
REMARK   64  A    between atoms: _178  and  _179
REMARK   65  A    between atoms: _183  and  _184
REMARK   66  A    between atoms: _190  and  _191
REMARK   67  A    between atoms: _196  and  _198
REMARK   68  A    between atoms: _198  and  _199
REMARK   69  A    between atoms: _198  and  _201
REMARK   70  A    between atoms: _201  and  _202
REMARK   71  A    between atoms: _204  and  _206
REMARK   72  A    between atoms: _206  and  _207
REMARK   73  A    between atoms: _206  and  _209
REMARK   74  A    between atoms: _209  and  _210
REMARK   75  A    between atoms: _213  and  _215
REMARK   76  A    between atoms: _215  and  _216
REMARK   77  A    between atoms: _215  and  _218
REMARK   78  A    between atoms: _220  and  _222
REMARK   79  A    between atoms: _222  and  _223
REMARK   80  A    between atoms: _222  and  _225
REMARK   81  A    between atoms: _225  and  _226
REMARK   82  A    between atoms: _229  and  _231
REMARK   83  A    between atoms: _231  and  _232
REMARK   84  A    between atoms: _231  and  _234
REMARK   85  A    between atoms: _234  and  _235
REMARK   86  A    between atoms: _238  and  _240
REMARK   87  A    between atoms: _240  and  _241
REMARK   88  A    between atoms: _240  and  _243
REMARK   89  A    between atoms: _243  and  _244
REMARK                            x       y       z     vdW  Elec       q    Type
REMARK                         _______ _______ _______ _____ _____    ______ ____
ROOT
ATOM      1  CA  VAL A   1      96.879  84.734 -41.230  0.00  0.00    +0.133 C 
ENDROOT
BRANCH   1   2
ATOM      2  CB  VAL A   1      95.854  85.617 -40.480  0.00  0.00    +0.023 C 
ATOM      3  CG2 VAL A   1      96.423  86.098 -39.143  0.00  0.00    +0.002 C 
ATOM      4  CG1 VAL A   1      95.452  86.826 -41.349  0.00  0.00    +0.002 C 
ENDBRANCH   1   2
BRANCH   1   5
ATOM      5  N   VAL A   1      96.372  84.345 -42.551  0.00  0.00    -0.239 NA
ATOM      6  H   VAL A   1      95.558  83.699 -42.599  0.00  0.00    +0.142 HD
ENDBRANCH   1   5
BRANCH   1   7
ATOM      7  C   VAL A   1      97.116  83.458 -40.421  0.00  0.00    +0.224 C 
ATOM      8  O   VAL A   1      96.178  82.701 -40.166  0.00  0.00    -0.287 OA
ENDBRANCH   1   7
TORSDOF 3
REMARK  Name = ../refined-set-2016/4agl/4agl_pocket.pdb
REMARK  89 active torsions:
REMARK  status: ('A' for Active; 'I' for Inactive)
REMARK    1  A    between atoms: _1  and  _3
REMARK    2  A    between atoms: _3  and  _4
REMARK    3  A    between atoms: _3  and  _6
REMARK    4  A    between atoms: _6  and  _7
REMARK    5  A    between atoms: _12  and  _13
REMARK    6  A    between atoms: _15  and  _17
REMARK    7  A    between atoms: _17  and  _18
REMARK    8  A    between atoms: _17  and  _20
REMARK    9  A    between atoms: _20  and  _21
REMARK   10  A    between atoms: _27  and  _29
REMARK   11  A    between atoms: _29  and  _30
REMARK   12  A    between atoms: _29  and  _32
REMARK   13  A    between atoms: _32  and  _33
REMARK   14  A    between atoms: _33  and  _34
REMARK   15  A    between atoms: _34  and  _35
REMARK   16  A    between atoms: _44  and  _46
REMARK   17  A    between atoms: _46  and  _47
REMARK   18  A    between atoms: _46  and  _49
REMARK   19  A    between atoms: _49  and  _50
REMARK   20  A    between atoms: _50  and  _51
REMARK   21  A    between atoms: _56  and  _58
REMARK   22  A    between atoms: _58  and  _59
REMARK   23  A    between atoms: _58  and  _61
REMARK   24  A    between atoms: _61  and  _62
REMARK   25  A    between atoms: _65  and  _67
REMARK   26  A    between atoms: _67  and  _68
REMARK   27  A    between atoms: _67  and  _70
REMARK   28  A    between atoms: _70  and  _71
REMARK   29  A    between atoms: _81  and  _83
REMARK   30  A    between atoms: _83  and  _84
REMARK   31  A    between atoms: _83  and  _86
REMARK   32  A    between atoms: _89  and  _91
REMARK   33  A    between atoms: _91  and  _92
REMARK   34  A    between atoms: _91  and  _94
REMARK   35  A    between atoms: _94  and  _95
REMARK   36  A    between atoms: _98  and  _100
REMARK   37  A    between atoms: _100  and  _101
REMARK   38  A    between atoms: _100  and  _103
REMARK   39  A    between atoms: _103  and  _104
REMARK   40  A    between atoms: _106  and  _108
REMARK   41  A    between atoms: _108  and  _109
REMARK   42  A    between atoms: _108  and  _111
REMARK   43  A    between atoms: _111  and  _112
REMARK   44  A    between atoms: _116  and  _117
REMARK   45  A    between atoms: _123  and  _124
REMARK   46  A    between atoms: _130  and  _131
REMARK   47  A    between atoms: _136  and  _138
REMARK   48  A    between atoms: _138  and  _139
REMARK   49  A    between atoms: _141  and  _143
REMARK   50  A    between atoms: _143  and  _144
REMARK   51  A    between atoms: _143  and  _146
REMARK   52  A    between atoms: _146  and  _147
REMARK   53  A    between atoms: _150  and  _152
REMARK   54  A    between atoms: _152  and  _153
REMARK   55  A    between atoms: _152  and  _155
REMARK   56  A    between atoms: _159  and  _160
REMARK   57  A    between atoms: _165  and  _167
REMARK   58  A    between atoms: _167  and  _168
REMARK   59  A    between atoms: _167  and  _170
REMARK   60  A    between atoms: _172  and  _174
REMARK   61  A    between atoms: _174  and  _175
REMARK   62  A    between atoms: _174  and  _177
REMARK   63  A    between atoms: _177  and  _178
REMARK   64  A    between atoms: _178  and  _179
REMARK   65  A    between atoms: _183  and  _184
REMARK   66  A    between atoms: _190  and  _191
REMARK   67  A    between atoms: _196  and  _198
REMARK   68  A    between atoms: _198  and  _199
REMARK   69  A    between atoms: _198  and  _201
REMARK   70  A    between atoms: _201  and  _202
REMARK   71  A    between atoms: _204  and  _206
REMARK   72  A    between atoms: _206  and  _207
REMARK   73  A    between atoms: _206  and  _209
REMARK   74  A    between atoms: _209  and  _210
REMARK   75  A    between atoms: _213  and  _215
REMARK   76  A    between atoms: _215  and  _216
REMARK   77  A    between atoms: _215  and  _218
REMARK   78  A    between atoms: _220  and  _222
REMARK   79  A    between atoms: _222  and  _223
REMARK   80  A    between atoms: _222  and  _225
REMARK   81  A    between atoms: _225  and  _226
REMARK   82  A    between atoms: _229  and  _231
REMARK   83  A    between atoms: _231  and  _232
REMARK   84  A    between atoms: _231  and  _234
REMARK   85  A    between atoms: _234  and  _235
REMARK   86  A    between atoms: _238  and  _240
REMARK   87  A    between atoms: _240  and  _241
REMARK   88  A    between atoms: _240  and  _243
REMARK   89  A    between atoms: _243  and  _244
REMARK                            x       y       z     vdW  Elec       q    Type
REMARK                         _______ _______ _______ _____ _____    ______ ____
ROOT
ATOM      1  CA  GLU A   3      89.126  88.877 -44.375  0.00  0.00    +0.149 C 
ENDROOT
BRANCH   1   2
ATOM      2  C   GLU A   3      88.997  90.349 -44.001  0.00  0.00    +0.244 C 
ATOM      3  O   GLU A   3      89.548  90.788 -42.995  0.00  0.00    -0.273 OA
ATOM      4  N   PRO A   4      88.274  91.123 -44.826  0.00  0.00    -0.272 N 
ATOM      5  CA  PRO A   4      88.065  92.549 -44.558  0.00  0.00    +0.152 C 
ATOM      6  CB  PRO A   4      87.352  93.051 -45.825  0.00  0.00    +0.031 C 
ATOM      7  CG  PRO A   4      87.532  91.975 -46.847  0.00  0.00    +0.024 C 
ATOM      8  CD  PRO A   4      87.629  90.693 -46.077  0.00  0.00    +0.094 C 
BRANCH   5   9
ATOM      9  C   PRO A   4      87.162  92.751 -43.346  0.00  0.00    +0.244 C 
ATOM     10  N   PRO A   5      87.261  93.915 -42.699  0.00  0.00    -0.273 N 
ATOM     11  CA  PRO A   5      86.392  94.207 -41.553  0.00  0.00    +0.140 C 
ATOM     12  CB  PRO A   5      86.819  95.620 -41.140  0.00  0.00    +0.030 C 
ATOM     13  CG  PRO A   5      88.221  95.771 -41.668  0.00  0.00    +0.024 C 
ATOM     14  CD  PRO A   5      88.245  94.980 -42.950  0.00  0.00    +0.094 C 
ATOM     15  O   PRO A   4      86.395  91.857 -42.996  0.00  0.00    -0.273 OA
BRANCH  11  16
ATOM     16  C   PRO A   5      84.913  94.205 -41.949  0.00  0.00    +0.227 C 
ATOM     17  O   PRO A   5      84.577  94.488 -43.095  0.00  0.00    -0.286 OA
ENDBRANCH  11  16
ENDBRANCH   5   9
ENDBRANCH   1   2
BRANCH   1  19
ATOM     18  C   CYS A   2      91.291  87.863 -44.774  0.00  0.00    +0.242 C 
ATOM     19  N   GLU A   3      90.398  88.332 -43.909  0.00  0.00    -0.297 N 
ATOM     20  H   GLU A   3      90.607  88.311 -42.890  0.00  0.00    +0.150 HD
ATOM     21  O   CYS A   2      91.109  87.886 -45.994  0.00  0.00    -0.273 OA
BRANCH  18  22
ATOM     22  CA  CYS A   2      92.563  87.249 -44.191  0.00  0.00    +0.160 C 
BRANCH  22  25
ATOM     23  C   PRO A   1      91.887  84.919 -44.145  0.00  0.00    +0.239 C 
ATOM     24  O   PRO A   1      91.164  85.091 -43.150  0.00  0.00    -0.274 OA
ATOM     25  N   CYS A   2      92.646  85.876 -44.662  0.00  0.00    -0.296 N 
ATOM     26  H   CYS A   2      93.316  85.639 -45.422  0.00  0.00    +0.150 HD
BRANCH  23  31
ATOM     27  N   PRO A   1      91.882  82.490 -43.813  0.00  0.00    -0.210 NA
ATOM     28  CD  PRO A   1      90.752  81.574 -44.041  0.00  0.00    +0.089 C 
ATOM     29  CG  PRO A   1      90.368  81.872 -45.473  0.00  0.00    +0.021 C 
ATOM     30  CB  PRO A   1      90.684  83.334 -45.651  0.00  0.00    +0.028 C 
ATOM     31  CA  PRO A   1      91.952  83.558 -44.824  0.00  0.00    +0.149 C 
ENDBRANCH  23  31
ENDBRANCH  22  25
BRANCH  22  32
ATOM     32  CB  CYS A   2      93.795  88.040 -44.637  0.00  0.00    +0.098 C 
ATOM     33  SG  CYS A   2      93.848  89.725 -43.964  0.00  0.00    -0.080 S 
ENDBRANCH  22  32
ENDBRANCH  18  22
ENDBRANCH   1  19
BRANCH   1  34
ATOM     34  CB  GLU A   3      87.954  88.083 -43.801  0.00  0.00    +0.041 C 
BRANCH  34  35
ATOM     35  CG  GLU A   3      87.817  86.685 -44.381  0.00  0.00    +0.116 C 
BRANCH  35  36
ATOM     36  CD  GLU A   3      86.935  85.797 -43.530  0.00  0.00    +0.365 C 
ATOM     37  OE2 GLU A   3      86.431  86.283 -42.496  0.00  0.00    -0.246 OA
ATOM     38  OE1 GLU A   3      86.751  84.612 -43.888  0.00  0.00    -0.246 OA
ENDBRANCH  35  36
ENDBRANCH  34  35
ENDBRANCH   1  34
TORSDOF 11
REMARK  Name = ../refined-set-2016/4agl/4agl_pocket.pdb
REMARK  89 active torsions:
REMARK  status: ('A' for Active; 'I' for Inactive)
REMARK    1  A    between atoms: _1  and  _3
REMARK    2  A    between atoms: _3  and  _4
REMARK    3  A    between atoms: _3  and  _6
REMARK    4  A    between atoms: _6  and  _7
REMARK    5  A    between atoms: _12  and  _13
REMARK    6  A    between atoms: _15  and  _17
REMARK    7  A    between atoms: _17  and  _18
REMARK    8  A    between atoms: _17  and  _20
REMARK    9  A    between atoms: _20  and  _21
REMARK   10  A    between atoms: _27  and  _29
REMARK   11  A    between atoms: _29  and  _30
REMARK   12  A    between atoms: _29  and  _32
REMARK   13  A    between atoms: _32  and  _33
REMARK   14  A    between atoms: _33  and  _34
REMARK   15  A    between atoms: _34  and  _35
REMARK   16  A    between atoms: _44  and  _46
REMARK   17  A    between atoms: _46  and  _47
REMARK   18  A    between atoms: _46  and  _49
REMARK   19  A    between atoms: _49  and  _50
REMARK   20  A    between atoms: _50  and  _51
REMARK   21  A    between atoms: _56  and  _58
REMARK   22  A    between atoms: _58  and  _59
REMARK   23  A    between atoms: _58  and  _61
REMARK   24  A    between atoms: _61  and  _62
REMARK   25  A    between atoms: _65  and  _67
REMARK   26  A    between atoms: _67  and  _68
REMARK   27  A    between atoms: _67  and  _70
REMARK   28  A    between atoms: _70  and  _71
REMARK   29  A    between atoms: _81  and  _83
REMARK   30  A    between atoms: _83  and  _84
REMARK   31  A    between atoms: _83  and  _86
REMARK   32  A    between atoms: _89  and  _91
REMARK   33  A    between atoms: _91  and  _92
REMARK   34  A    between atoms: _91  and  _94
REMARK   35  A    between atoms: _94  and  _95
REMARK   36  A    between atoms: _98  and  _100
REMARK   37  A    between atoms: _100  and  _101
REMARK   38  A    between atoms: _100  and  _103
REMARK   39  A    between atoms: _103  and  _104
REMARK   40  A    between atoms: _106  and  _108
REMARK   41  A    between atoms: _108  and  _109
REMARK   42  A    between atoms: _108  and  _111
REMARK   43  A    between atoms: _111  and  _112
REMARK   44  A    between atoms: _116  and  _117
REMARK   45  A    between atoms: _123  and  _124
REMARK   46  A    between atoms: _130  and  _131
REMARK   47  A    between atoms: _136  and  _138
REMARK   48  A    between atoms: _138  and  _139
REMARK   49  A    between atoms: _141  and  _143
REMARK   50  A    between atoms: _143  and  _144
REMARK   51  A    between atoms: _143  and  _146
REMARK   52  A    between atoms: _146  and  _147
REMARK   53  A    between atoms: _150  and  _152
REMARK   54  A    between atoms: _152  and  _153
REMARK   55  A    between atoms: _152  and  _155
REMARK   56  A    between atoms: _159  and  _160
REMARK   57  A    between atoms: _165  and  _167
REMARK   58  A    between atoms: _167  and  _168
REMARK   59  A    between atoms: _167  and  _170
REMARK   60  A    between atoms: _172  and  _174
REMARK   61  A    between atoms: _174  and  _175
REMARK   62  A    between atoms: _174  and  _177
REMARK   63  A    between atoms: _177  and  _178
REMARK   64  A    between atoms: _178  and  _179
REMARK   65  A    between atoms: _183  and  _184
REMARK   66  A    between atoms: _190  and  _191
REMARK   67  A    between atoms: _196  and  _198
REMARK   68  A    between atoms: _198  and  _199
REMARK   69  A    between atoms: _198  and  _201
REMARK   70  A    between atoms: _201  and  _202
REMARK   71  A    between atoms: _204  and  _206
REMARK   72  A    between atoms: _206  and  _207
REMARK   73  A    between atoms: _206  and  _209
REMARK   74  A    between atoms: _209  and  _210
REMARK   75  A    between atoms: _213  and  _215
REMARK   76  A    between atoms: _215  and  _216
REMARK   77  A    between atoms: _215  and  _218
REMARK   78  A    between atoms: _220  and  _222
REMARK   79  A    between atoms: _222  and  _223
REMARK   80  A    between atoms: _222  and  _225
REMARK   81  A    between atoms: _225  and  _226
REMARK   82  A    between atoms: _229  and  _231
REMARK   83  A    between atoms: _231  and  _232
REMARK   84  A    between atoms: _231  and  _234
REMARK   85  A    between atoms: _234  and  _235
REMARK   86  A    between atoms: _238  and  _240
REMARK   87  A    between atoms: _240  and  _241
REMARK   88  A    between atoms: _240  and  _243
REMARK   89  A    between atoms: _243  and  _244
REMARK                            x       y       z     vdW  Elec       q    Type
REMARK                         _______ _______ _______ _____ _____    ______ ____
ROOT
ATOM      1  CA  CYS A   3      89.757  96.074 -38.172  0.00  0.00    +0.160 C 
ENDROOT
BRANCH   1   3
ATOM      2  C   ASP A   2      89.125  98.311 -38.904  0.00  0.00    +0.241 C 
ATOM      3  N   CYS A   3      88.814  97.186 -38.268  0.00  0.00    -0.296 N 
ATOM      4  H   CYS A   3      87.876  97.095 -37.828  0.00  0.00    +0.150 HD
ATOM      5  O   ASP A   2      90.223  98.505 -39.439  0.00  0.00    -0.273 OA
BRANCH   2   6
ATOM      6  CA  ASP A   2      88.051  99.393 -38.937  0.00  0.00    +0.160 C 
BRANCH   6   8
ATOM      7  C   SER A   1      85.720  98.704 -39.198  0.00  0.00    +0.241 C 
ATOM      8  N   ASP A   2      86.768  98.942 -38.414  0.00  0.00    -0.297 N 
ATOM      9  H   ASP A   2      86.668  98.801 -37.389  0.00  0.00    +0.150 HD
ATOM     10  O   SER A   1      85.772  98.745 -40.425  0.00  0.00    -0.274 OA
BRANCH   7  11
ATOM     11  CA  SER A   1      84.418  98.361 -38.481  0.00  0.00    +0.174 C 
BRANCH  11  12
ATOM     12  N   SER A   1      83.255  98.644 -39.322  0.00  0.00    -0.236 NA
ATOM     13  H   SER A   1      83.045  98.014 -40.122  0.00  0.00    +0.142 HD
ENDBRANCH  11  12
BRANCH  11  14
ATOM     14  CB  SER A   1      84.434  96.893 -38.047  0.00  0.00    +0.163 C 
BRANCH  14  15
ATOM     15  OG  SER A   1      83.375  96.614 -37.144  0.00  0.00    -0.380 OA
ATOM     16  H   SER A   1      82.509  96.805 -37.584  0.00  0.00    +0.211 HD
ENDBRANCH  14  15
ENDBRANCH  11  14
ENDBRANCH   7  11
ENDBRANCH   6   8
BRANCH   6  17
ATOM     17  CB  ASP A   2      88.534 100.612 -38.149  0.00  0.00    +0.143 C 
BRANCH  17  18
ATOM     18  CG  ASP A   2      87.697 101.851 -38.416  0.00  0.00    +0.367 C 
ATOM     19  OD2 ASP A   2      87.466 102.619 -37.461  0.00  0.00    -0.246 OA
ATOM     20  OD1 ASP A   2      87.273 102.051 -39.572  0.00  0.00    -0.246 OA
ENDBRANCH  17  18
ENDBRANCH   6  17
ENDBRANCH   2   6
ENDBRANCH   1   3
BRANCH   1  21
ATOM     21  C   CYS A   3      89.011  94.746 -38.177  0.00  0.00    +0.242 C 
ATOM     22  O   CYS A   3      87.789  94.708 -38.060  0.00  0.00    -0.273 OA
ATOM     23  N   THR A   4      89.755  93.656 -38.332  0.00  0.00    -0.295 N 
ATOM     24  H   THR A   4      90.779  93.752 -38.483  0.00  0.00    +0.150 HD
BRANCH  23  25
ATOM     25  CA  THR A   4      89.158  92.329 -38.294  0.00  0.00    +0.176 C 
BRANCH  25  26
ATOM     26  C   THR A   4      89.614  91.603 -37.037  0.00  0.00    +0.243 C 
ATOM     27  N   THR A   5      88.723  90.801 -36.468  0.00  0.00    -0.296 N 
ATOM     28  H   THR A   5      87.792  90.662 -36.910  0.00  0.00    +0.150 HD
ATOM     29  O   THR A   4      90.739  91.781 -36.579  0.00  0.00    -0.273 OA
BRANCH  27  30
ATOM     30  CA  THR A   5      89.050  90.115 -35.223  0.00  0.00    +0.164 C 
BRANCH  30  31
ATOM     31  C   THR A   5      89.035  88.606 -35.419  0.00  0.00    +0.229 C 
ATOM     32  O   THR A   5      88.129  88.066 -36.055  0.00  0.00    -0.286 OA
ENDBRANCH  30  31
BRANCH  30  33
ATOM     33  CB  THR A   5      88.093  90.537 -34.088  0.00  0.00    +0.136 C 
ATOM     34  CG2 THR A   5      88.447  89.826 -32.786  0.00  0.00    +0.034 C 
BRANCH  33  35
ATOM     35  OG1 THR A   5      88.203  91.953 -33.879  0.00  0.00    -0.382 OA
ATOM     36  HG1 THR A   5      87.960  92.428 -34.713  0.00  0.00    +0.210 HD
ENDBRANCH  33  35
ENDBRANCH  30  33
ENDBRANCH  27  30
ENDBRANCH  25  26
BRANCH  25  37
ATOM     37  CB  THR A   4      89.526  91.501 -39.536  0.00  0.00    +0.137 C 
ATOM     38  CG2 THR A   4      91.017  91.267 -39.588  0.00  0.00    +0.034 C 
BRANCH  37  39
ATOM     39  OG1 THR A   4      88.848  90.239 -39.492  0.00  0.00    -0.382 OA
ATOM     40  HG1 THR A   4      87.870  90.392 -39.476  0.00  0.00    +0.210 HD
ENDBRANCH  37  39
ENDBRANCH  25  37
ENDBRANCH  23  25
ENDBRANCH   1  21
BRANCH   1  41
ATOM     41  CB  CYS A   3      90.603  96.187 -36.892  0.00  0.00    +0.098 C 
ATOM     42  SG  CYS A   3      89.733  95.835 -35.332  0.00  0.00    -0.080 S 
ENDBRANCH   1  41
TORSDOF 19
REMARK  Name = ../refined-set-2016/4agl/4agl_pocket.pdb
REMARK  89 active torsions:
REMARK  status: ('A' for Active; 'I' for Inactive)
REMARK    1  A    between atoms: _1  and  _3
REMARK    2  A    between atoms: _3  and  _4
REMARK    3  A    between atoms: _3  and  _6
REMARK    4  A    between atoms: _6  and  _7
REMARK    5  A    between atoms: _12  and  _13
REMARK    6  A    between atoms: _15  and  _17
REMARK    7  A    between atoms: _17  and  _18
REMARK    8  A    between atoms: _17  and  _20
REMARK    9  A    between atoms: _20  and  _21
REMARK   10  A    between atoms: _27  and  _29
REMARK   11  A    between atoms: _29  and  _30
REMARK   12  A    between atoms: _29  and  _32
REMARK   13  A    between atoms: _32  and  _33
REMARK   14  A    between atoms: _33  and  _34
REMARK   15  A    between atoms: _34  and  _35
REMARK   16  A    between atoms: _44  and  _46
REMARK   17  A    between atoms: _46  and  _47
REMARK   18  A    between atoms: _46  and  _49
REMARK   19  A    between atoms: _49  and  _50
REMARK   20  A    between atoms: _50  and  _51
REMARK   21  A    between atoms: _56  and  _58
REMARK   22  A    between atoms: _58  and  _59
REMARK   23  A    between atoms: _58  and  _61
REMARK   24  A    between atoms: _61  and  _62
REMARK   25  A    between atoms: _65  and  _67
REMARK   26  A    between atoms: _67  and  _68
REMARK   27  A    between atoms: _67  and  _70
REMARK   28  A    between atoms: _70  and  _71
REMARK   29  A    between atoms: _81  and  _83
REMARK   30  A    between atoms: _83  and  _84
REMARK   31  A    between atoms: _83  and  _86
REMARK   32  A    between atoms: _89  and  _91
REMARK   33  A    between atoms: _91  and  _92
REMARK   34  A    between atoms: _91  and  _94
REMARK   35  A    between atoms: _94  and  _95
REMARK   36  A    between atoms: _98  and  _100
REMARK   37  A    between atoms: _100  and  _101
REMARK   38  A    between atoms: _100  and  _103
REMARK   39  A    between atoms: _103  and  _104
REMARK   40  A    between atoms: _106  and  _108
REMARK   41  A    between atoms: _108  and  _109
REMARK   42  A    between atoms: _108  and  _111
REMARK   43  A    between atoms: _111  and  _112
REMARK   44  A    between atoms: _116  and  _117
REMARK   45  A    between atoms: _123  and  _124
REMARK   46  A    between atoms: _130  and  _131
REMARK   47  A    between atoms: _136  and  _138
REMARK   48  A    between atoms: _138  and  _139
REMARK   49  A    between atoms: _141  and  _143
REMARK   50  A    between atoms: _143  and  _144
REMARK   51  A    between atoms: _143  and  _146
REMARK   52  A    between atoms: _146  and  _147
REMARK   53  A    between atoms: _150  and  _152
REMARK   54  A    between atoms: _152  and  _153
REMARK   55  A    between atoms: _152  and  _155
REMARK   56  A    between atoms: _159  and  _160
REMARK   57  A    between atoms: _165  and  _167
REMARK   58  A    between atoms: _167  and  _168
REMARK   59  A    between atoms: _167  and  _170
REMARK   60  A    between atoms: _172  and  _174
REMARK   61  A    between atoms: _174  and  _175
REMARK   62  A    between atoms: _174  and  _177
REMARK   63  A    between atoms: _177  and  _178
REMARK   64  A    between atoms: _178  and  _179
REMARK   65  A    between atoms: _183  and  _184
REMARK   66  A    between atoms: _190  and  _191
REMARK   67  A    between atoms: _196  and  _198
REMARK   68  A    between atoms: _198  and  _199
REMARK   69  A    between atoms: _198  and  _201
REMARK   70  A    between atoms: _201  and  _202
REMARK   71  A    between atoms: _204  and  _206
REMARK   72  A    between atoms: _206  and  _207
REMARK   73  A    between atoms: _206  and  _209
REMARK   74  A    between atoms: _209  and  _210
REMARK   75  A    between atoms: _213  and  _215
REMARK   76  A    between atoms: _215  and  _216
REMARK   77  A    between atoms: _215  and  _218
REMARK   78  A    between atoms: _220  and  _222
REMARK   79  A    between atoms: _222  and  _223
REMARK   80  A    between atoms: _222  and  _225
REMARK   81  A    between atoms: _225  and  _226
REMARK   82  A    between atoms: _229  and  _231
REMARK   83  A    between atoms: _231  and  _232
REMARK   84  A    between atoms: _231  and  _234
REMARK   85  A    between atoms: _234  and  _235
REMARK   86  A    between atoms: _238  and  _240
REMARK   87  A    between atoms: _240  and  _241
REMARK   88  A    between atoms: _240  and  _243
REMARK   89  A    between atoms: _243  and  _244
REMARK                            x       y       z     vdW  Elec       q    Type
REMARK                         _______ _______ _______ _____ _____    ______ ____
ROOT
ATOM      1  CA  LEU A   1     100.469  87.494 -42.521  0.00  0.00    +0.133 C 
ENDROOT
BRANCH   1   2
ATOM      2  N   LEU A   1     101.290  87.207 -41.364  0.00  0.00    -0.239 NA
ATOM      3  H   LEU A   1     102.052  87.868 -41.111  0.00  0.00    +0.142 HD
ENDBRANCH   1   2
BRANCH   1   4
ATOM      4  C   LEU A   1     101.246  86.874 -43.694  0.00  0.00    +0.224 C 
ATOM      5  O   LEU A   1     102.440  87.133 -43.835  0.00  0.00    -0.287 OA
ENDBRANCH   1   4
BRANCH   1   6
ATOM      6  CB  LEU A   1     100.324  89.015 -42.678  0.00  0.00    +0.025 C 
BRANCH   6   7
ATOM      7  CG  LEU A   1      99.326  89.477 -43.741  0.00  0.00    +0.002 C 
ATOM      8  CD2 LEU A   1      97.900  89.200 -43.279  0.00  0.00    +0.000 C 
ATOM      9  CD1 LEU A   1      99.510  90.958 -44.059  0.00  0.00    +0.000 C 
ENDBRANCH   6   7
ENDBRANCH   1   6
TORSDOF 4
REMARK  Name = ../refined-set-2016/4agl/4agl_pocket.pdb
REMARK  89 active torsions:
REMARK  status: ('A' for Active; 'I' for Inactive)
REMARK    1  A    between atoms: _1  and  _3
REMARK    2  A    between atoms: _3  and  _4
REMARK    3  A    between atoms: _3  and  _6
REMARK    4  A    between atoms: _6  and  _7
REMARK    5  A    between atoms: _12  and  _13
REMARK    6  A    between atoms: _15  and  _17
REMARK    7  A    between atoms: _17  and  _18
REMARK    8  A    between atoms: _17  and  _20
REMARK    9  A    between atoms: _20  and  _21
REMARK   10  A    between atoms: _27  and  _29
REMARK   11  A    between atoms: _29  and  _30
REMARK   12  A    between atoms: _29  and  _32
REMARK   13  A    between atoms: _32  and  _33
REMARK   14  A    between atoms: _33  and  _34
REMARK   15  A    between atoms: _34  and  _35
REMARK   16  A    between atoms: _44  and  _46
REMARK   17  A    between atoms: _46  and  _47
REMARK   18  A    between atoms: _46  and  _49
REMARK   19  A    between atoms: _49  and  _50
REMARK   20  A    between atoms: _50  and  _51
REMARK   21  A    between atoms: _56  and  _58
REMARK   22  A    between atoms: _58  and  _59
REMARK   23  A    between atoms: _58  and  _61
REMARK   24  A    between atoms: _61  and  _62
REMARK   25  A    between atoms: _65  and  _67
REMARK   26  A    between atoms: _67  and  _68
REMARK   27  A    between atoms: _67  and  _70
REMARK   28  A    between atoms: _70  and  _71
REMARK   29  A    between atoms: _81  and  _83
REMARK   30  A    between atoms: _83  and  _84
REMARK   31  A    between atoms: _83  and  _86
REMARK   32  A    between atoms: _89  and  _91
REMARK   33  A    between atoms: _91  and  _92
REMARK   34  A    between atoms: _91  and  _94
REMARK   35  A    between atoms: _94  and  _95
REMARK   36  A    between atoms: _98  and  _100
REMARK   37  A    between atoms: _100  and  _101
REMARK   38  A    between atoms: _100  and  _103
REMARK   39  A    between atoms: _103  and  _104
REMARK   40  A    between atoms: _106  and  _108
REMARK   41  A    between atoms: _108  and  _109
REMARK   42  A    between atoms: _108  and  _111
REMARK   43  A    between atoms: _111  and  _112
REMARK   44  A    between atoms: _116  and  _117
REMARK   45  A    between atoms: _123  and  _124
REMARK   46  A    between atoms: _130  and  _131
REMARK   47  A    between atoms: _136  and  _138
REMARK   48  A    between atoms: _138  and  _139
REMARK   49  A    between atoms: _141  and  _143
REMARK   50  A    between atoms: _143  and  _144
REMARK   51  A    between atoms: _143  and  _146
REMARK   52  A    between atoms: _146  and  _147
REMARK   53  A    between atoms: _150  and  _152
REMARK   54  A    between atoms: _152  and  _153
REMARK   55  A    between atoms: _152  and  _155
REMARK   56  A    between atoms: _159  and  _160
REMARK   57  A    between atoms: _165  and  _167
REMARK   58  A    between atoms: _167  and  _168
REMARK   59  A    between atoms: _167  and  _170
REMARK   60  A    between atoms: _172  and  _174
REMARK   61  A    between atoms: _174  and  _175
REMARK   62  A    between atoms: _174  and  _177
REMARK   63  A    between atoms: _177  and  _178
REMARK   64  A    between atoms: _178  and  _179
REMARK   65  A    between atoms: _183  and  _184
REMARK   66  A    between atoms: _190  and  _191
REMARK   67  A    between atoms: _196  and  _198
REMARK   68  A    between atoms: _198  and  _199
REMARK   69  A    between atoms: _198  and  _201
REMARK   70  A    between atoms: _201  and  _202
REMARK   71  A    between atoms: _204  and  _206
REMARK   72  A    between atoms: _206  and  _207
REMARK   73  A    between atoms: _206  and  _209
REMARK   74  A    between atoms: _209  and  _210
REMARK   75  A    between atoms: _213  and  _215
REMARK   76  A    between atoms: _215  and  _216
REMARK   77  A    between atoms: _215  and  _218
REMARK   78  A    between atoms: _220  and  _222
REMARK   79  A    between atoms: _222  and  _223
REMARK   80  A    between atoms: _222  and  _225
REMARK   81  A    between atoms: _225  and  _226
REMARK   82  A    between atoms: _229  and  _231
REMARK   83  A    between atoms: _231  and  _232
REMARK   84  A    between atoms: _231  and  _234
REMARK   85  A    between atoms: _234  and  _235
REMARK   86  A    between atoms: _238  and  _240
REMARK   87  A    between atoms: _240  and  _241
REMARK   88  A    between atoms: _240  and  _243
REMARK   89  A    between atoms: _243  and  _244
REMARK                            x       y       z     vdW  Elec       q    Type
REMARK                         _______ _______ _______ _____ _____    ______ ____
ROOT
ATOM      1  O   HOH     1      96.012 102.520 -40.059  0.00  0.00    +0.000 OA
ENDROOT
TORSDOF 0
REMARK  Name = ../refined-set-2016/4agl/4agl_pocket.pdb
REMARK  89 active torsions:
REMARK  status: ('A' for Active; 'I' for Inactive)
REMARK    1  A    between atoms: _1  and  _3
REMARK    2  A    between atoms: _3  and  _4
REMARK    3  A    between atoms: _3  and  _6
REMARK    4  A    between atoms: _6  and  _7
REMARK    5  A    between atoms: _12  and  _13
REMARK    6  A    between atoms: _15  and  _17
REMARK    7  A    between atoms: _17  and  _18
REMARK    8  A    between atoms: _17  and  _20
REMARK    9  A    between atoms: _20  and  _21
REMARK   10  A    between atoms: _27  and  _29
REMARK   11  A    between atoms: _29  and  _30
REMARK   12  A    between atoms: _29  and  _32
REMARK   13  A    between atoms: _32  and  _33
REMARK   14  A    between atoms: _33  and  _34
REMARK   15  A    between atoms: _34  and  _35
REMARK   16  A    between atoms: _44  and  _46
REMARK   17  A    between atoms: _46  and  _47
REMARK   18  A    between atoms: _46  and  _49
REMARK   19  A    between atoms: _49  and  _50
REMARK   20  A    between atoms: _50  and  _51
REMARK   21  A    between atoms: _56  and  _58
REMARK   22  A    between atoms: _58  and  _59
REMARK   23  A    between atoms: _58  and  _61
REMARK   24  A    between atoms: _61  and  _62
REMARK   25  A    between atoms: _65  and  _67
REMARK   26  A    between atoms: _67  and  _68
REMARK   27  A    between atoms: _67  and  _70
REMARK   28  A    between atoms: _70  and  _71
REMARK   29  A    between atoms: _81  and  _83
REMARK   30  A    between atoms: _83  and  _84
REMARK   31  A    between atoms: _83  and  _86
REMARK   32  A    between atoms: _89  and  _91
REMARK   33  A    between atoms: _91  and  _92
REMARK   34  A    between atoms: _91  and  _94
REMARK   35  A    between atoms: _94  and  _95
REMARK   36  A    between atoms: _98  and  _100
REMARK   37  A    between atoms: _100  and  _101
REMARK   38  A    between atoms: _100  and  _103
REMARK   39  A    between atoms: _103  and  _104
REMARK   40  A    between atoms: _106  and  _108
REMARK   41  A    between atoms: _108  and  _109
REMARK   42  A    between atoms: _108  and  _111
REMARK   43  A    between atoms: _111  and  _112
REMARK   44  A    between atoms: _116  and  _117
REMARK   45  A    between atoms: _123  and  _124
REMARK   46  A    between atoms: _130  and  _131
REMARK   47  A    between atoms: _136  and  _138
REMARK   48  A    between atoms: _138  and  _139
REMARK   49  A    between atoms: _141  and  _143
REMARK   50  A    between atoms: _143  and  _144
REMARK   51  A    between atoms: _143  and  _146
REMARK   52  A    between atoms: _146  and  _147
REMARK   53  A    between atoms: _150  and  _152
REMARK   54  A    between atoms: _152  and  _153
REMARK   55  A    between atoms: _152  and  _155
REMARK   56  A    between atoms: _159  and  _160
REMARK   57  A    between atoms: _165  and  _167
REMARK   58  A    between atoms: _167  and  _168
REMARK   59  A    between atoms: _167  and  _170
REMARK   60  A    between atoms: _172  and  _174
REMARK   61  A    between atoms: _174  and  _175
REMARK   62  A    between atoms: _174  and  _177
REMARK   63  A    between atoms: _177  and  _178
REMARK   64  A    between atoms: _178  and  _179
REMARK   65  A    between atoms: _183  and  _184
REMARK   66  A    between atoms: _190  and  _191
REMARK   67  A    between atoms: _196  and  _198
REMARK   68  A    between atoms: _198  and  _199
REMARK   69  A    between atoms: _198  and  _201
REMARK   70  A    between atoms: _201  and  _202
REMARK   71  A    between atoms: _204  and  _206
REMARK   72  A    between atoms: _206  and  _207
REMARK   73  A    between atoms: _206  and  _209
REMARK   74  A    between atoms: _209  and  _210
REMARK   75  A    between atoms: _213  and  _215
REMARK   76  A    between atoms: _215  and  _216
REMARK   77  A    between atoms: _215  and  _218
REMARK   78  A    between atoms: _220  and  _222
REMARK   79  A    between atoms: _222  and  _223
REMARK   80  A    between atoms: _222  and  _225
REMARK   81  A    between atoms: _225  and  _226
REMARK   82  A    between atoms: _229  and  _231
REMARK   83  A    between atoms: _231  and  _232
REMARK   84  A    between atoms: _231  and  _234
REMARK   85  A    between atoms: _234  and  _235
REMARK   86  A    between atoms: _238  and  _240
REMARK   87  A    between atoms: _240  and  _241
REMARK   88  A    between atoms: _240  and  _243
REMARK   89  A    between atoms: _243  and  _244
REMARK                            x       y       z     vdW  Elec       q    Type
REMARK                         _______ _______ _______ _____ _____    ______ ____
ROOT
ATOM      1  O   HOH     1      92.796  97.680 -40.371  0.00  0.00    +0.000 OA
ENDROOT
TORSDOF 0
REMARK  Name = ../refined-set-2016/4agl/4agl_pocket.pdb
REMARK  89 active torsions:
REMARK  status: ('A' for Active; 'I' for Inactive)
REMARK    1  A    between atoms: _1  and  _3
REMARK    2  A    between atoms: _3  and  _4
REMARK    3  A    between atoms: _3  and  _6
REMARK    4  A    between atoms: _6  and  _7
REMARK    5  A    between atoms: _12  and  _13
REMARK    6  A    between atoms: _15  and  _17
REMARK    7  A    between atoms: _17  and  _18
REMARK    8  A    between atoms: _17  and  _20
REMARK    9  A    between atoms: _20  and  _21
REMARK   10  A    between atoms: _27  and  _29
REMARK   11  A    between atoms: _29  and  _30
REMARK   12  A    between atoms: _29  and  _32
REMARK   13  A    between atoms: _32  and  _33
REMARK   14  A    between atoms: _33  and  _34
REMARK   15  A    between atoms: _34  and  _35
REMARK   16  A    between atoms: _44  and  _46
REMARK   17  A    between atoms: _46  and  _47
REMARK   18  A    between atoms: _46  and  _49
REMARK   19  A    between atoms: _49  and  _50
REMARK   20  A    between atoms: _50  and  _51
REMARK   21  A    between atoms: _56  and  _58
REMARK   22  A    between atoms: _58  and  _59
REMARK   23  A    between atoms: _58  and  _61
REMARK   24  A    between atoms: _61  and  _62
REMARK   25  A    between atoms: _65  and  _67
REMARK   26  A    between atoms: _67  and  _68
REMARK   27  A    between atoms: _67  and  _70
REMARK   28  A    between atoms: _70  and  _71
REMARK   29  A    between atoms: _81  and  _83
REMARK   30  A    between atoms: _83  and  _84
REMARK   31  A    between atoms: _83  and  _86
REMARK   32  A    between atoms: _89  and  _91
REMARK   33  A    between atoms: _91  and  _92
REMARK   34  A    between atoms: _91  and  _94
REMARK   35  A    between atoms: _94  and  _95
REMARK   36  A    between atoms: _98  and  _100
REMARK   37  A    between atoms: _100  and  _101
REMARK   38  A    between atoms: _100  and  _103
REMARK   39  A    between atoms: _103  and  _104
REMARK   40  A    between atoms: _106  and  _108
REMARK   41  A    between atoms: _108  and  _109
REMARK   42  A    between atoms: _108  and  _111
REMARK   43  A    between atoms: _111  and  _112
REMARK   44  A    between atoms: _116  and  _117
REMARK   45  A    between atoms: _123  and  _124
REMARK   46  A    between atoms: _130  and  _131
REMARK   47  A    between atoms: _136  and  _138
REMARK   48  A    between atoms: _138  and  _139
REMARK   49  A    between atoms: _141  and  _143
REMARK   50  A    between atoms: _143  and  _144
REMARK   51  A    between atoms: _143  and  _146
REMARK   52  A    between atoms: _146  and  _147
REMARK   53  A    between atoms: _150  and  _152
REMARK   54  A    between atoms: _152  and  _153
REMARK   55  A    between atoms: _152  and  _155
REMARK   56  A    between atoms: _159  and  _160
REMARK   57  A    between atoms: _165  and  _167
REMARK   58  A    between atoms: _167  and  _168
REMARK   59  A    between atoms: _167  and  _170
REMARK   60  A    between atoms: _172  and  _174
REMARK   61  A    between atoms: _174  and  _175
REMARK   62  A    between atoms: _174  and  _177
REMARK   63  A    between atoms: _177  and  _178
REMARK   64  A    between atoms: _178  and  _179
REMARK   65  A    between atoms: _183  and  _184
REMARK   66  A    between atoms: _190  and  _191
REMARK   67  A    between atoms: _196  and  _198
REMARK   68  A    between atoms: _198  and  _199
REMARK   69  A    between atoms: _198  and  _201
REMARK   70  A    between atoms: _201  and  _202
REMARK   71  A    between atoms: _204  and  _206
REMARK   72  A    between atoms: _206  and  _207
REMARK   73  A    between atoms: _206  and  _209
REMARK   74  A    between atoms: _209  and  _210
REMARK   75  A    between atoms: _213  and  _215
REMARK   76  A    between atoms: _215  and  _216
REMARK   77  A    between atoms: _215  and  _218
REMARK   78  A    between atoms: _220  and  _222
REMARK   79  A    between atoms: _222  and  _223
REMARK   80  A    between atoms: _222  and  _225
REMARK   81  A    between atoms: _225  and  _226
REMARK   82  A    between atoms: _229  and  _231
REMARK   83  A    between atoms: _231  and  _232
REMARK   84  A    between atoms: _231  and  _234
REMARK   85  A    between atoms: _234  and  _235
REMARK   86  A    between atoms: _238  and  _240
REMARK   87  A    between atoms: _240  and  _241
REMARK   88  A    between atoms: _240  and  _243
REMARK   89  A    between atoms: _243  and  _244
REMARK                            x       y       z     vdW  Elec       q    Type
REMARK                         _______ _______ _______ _____ _____    ______ ____
ROOT
ATOM      1  O   HOH     1      93.899 100.978 -40.823  0.00  0.00    +0.000 OA
ENDROOT
TORSDOF 0
REMARK  Name = ../refined-set-2016/4agl/4agl_pocket.pdb
REMARK  89 active torsions:
REMARK  status: ('A' for Active; 'I' for Inactive)
REMARK    1  A    between atoms: _1  and  _3
REMARK    2  A    between atoms: _3  and  _4
REMARK    3  A    between atoms: _3  and  _6
REMARK    4  A    between atoms: _6  and  _7
REMARK    5  A    between atoms: _12  and  _13
REMARK    6  A    between atoms: _15  and  _17
REMARK    7  A    between atoms: _17  and  _18
REMARK    8  A    between atoms: _17  and  _20
REMARK    9  A    between atoms: _20  and  _21
REMARK   10  A    between atoms: _27  and  _29
REMARK   11  A    between atoms: _29  and  _30
REMARK   12  A    between atoms: _29  and  _32
REMARK   13  A    between atoms: _32  and  _33
REMARK   14  A    between atoms: _33  and  _34
REMARK   15  A    between atoms: _34  and  _35
REMARK   16  A    between atoms: _44  and  _46
REMARK   17  A    between atoms: _46  and  _47
REMARK   18  A    between atoms: _46  and  _49
REMARK   19  A    between atoms: _49  and  _50
REMARK   20  A    between atoms: _50  and  _51
REMARK   21  A    between atoms: _56  and  _58
REMARK   22  A    between atoms: _58  and  _59
REMARK   23  A    between atoms: _58  and  _61
REMARK   24  A    between atoms: _61  and  _62
REMARK   25  A    between atoms: _65  and  _67
REMARK   26  A    between atoms: _67  and  _68
REMARK   27  A    between atoms: _67  and  _70
REMARK   28  A    between atoms: _70  and  _71
REMARK   29  A    between atoms: _81  and  _83
REMARK   30  A    between atoms: _83  and  _84
REMARK   31  A    between atoms: _83  and  _86
REMARK   32  A    between atoms: _89  and  _91
REMARK   33  A    between atoms: _91  and  _92
REMARK   34  A    between atoms: _91  and  _94
REMARK   35  A    between atoms: _94  and  _95
REMARK   36  A    between atoms: _98  and  _100
REMARK   37  A    between atoms: _100  and  _101
REMARK   38  A    between atoms: _100  and  _103
REMARK   39  A    between atoms: _103  and  _104
REMARK   40  A    between atoms: _106  and  _108
REMARK   41  A    between atoms: _108  and  _109
REMARK   42  A    between atoms: _108  and  _111
REMARK   43  A    between atoms: _111  and  _112
REMARK   44  A    between atoms: _116  and  _117
REMARK   45  A    between atoms: _123  and  _124
REMARK   46  A    between atoms: _130  and  _131
REMARK   47  A    between atoms: _136  and  _138
REMARK   48  A    between atoms: _138  and  _139
REMARK   49  A    between atoms: _141  and  _143
REMARK   50  A    between atoms: _143  and  _144
REMARK   51  A    between atoms: _143  and  _146
REMARK   52  A    between atoms: _146  and  _147
REMARK   53  A    between atoms: _150  and  _152
REMARK   54  A    between atoms: _152  and  _153
REMARK   55  A    between atoms: _152  and  _155
REMARK   56  A    between atoms: _159  and  _160
REMARK   57  A    between atoms: _165  and  _167
REMARK   58  A    between atoms: _167  and  _168
REMARK   59  A    between atoms: _167  and  _170
REMARK   60  A    between atoms: _172  and  _174
REMARK   61  A    between atoms: _174  and  _175
REMARK   62  A    between atoms: _174  and  _177
REMARK   63  A    between atoms: _177  and  _178
REMARK   64  A    between atoms: _178  and  _179
REMARK   65  A    between atoms: _183  and  _184
REMARK   66  A    between atoms: _190  and  _191
REMARK   67  A    between atoms: _196  and  _198
REMARK   68  A    between atoms: _198  and  _199
REMARK   69  A    between atoms: _198  and  _201
REMARK   70  A    between atoms: _201  and  _202
REMARK   71  A    between atoms: _204  and  _206
REMARK   72  A    between atoms: _206  and  _207
REMARK   73  A    between atoms: _206  and  _209
REMARK   74  A    between atoms: _209  and  _210
REMARK   75  A    between atoms: _213  and  _215
REMARK   76  A    between atoms: _215  and  _216
REMARK   77  A    between atoms: _215  and  _218
REMARK   78  A    between atoms: _220  and  _222
REMARK   79  A    between atoms: _222  and  _223
REMARK   80  A    between atoms: _222  and  _225
REMARK   81  A    between atoms: _225  and  _226
REMARK   82  A    between atoms: _229  and  _231
REMARK   83  A    between atoms: _231  and  _232
REMARK   84  A    between atoms: _231  and  _234
REMARK   85  A    between atoms: _234  and  _235
REMARK   86  A    between atoms: _238  and  _240
REMARK   87  A    between atoms: _240  and  _241
REMARK   88  A    between atoms: _240  and  _243
REMARK   89  A    between atoms: _243  and  _244
REMARK                            x       y       z     vdW  Elec       q    Type
REMARK                         _______ _______ _______ _____ _____    ______ ____
ROOT
ATOM      1  O   HOH     1      93.231 101.653 -47.246  0.00  0.00    +0.000 OA
ENDROOT
TORSDOF 0
REMARK  Name = ../refined-set-2016/4agl/4agl_pocket.pdb
REMARK  89 active torsions:
REMARK  status: ('A' for Active; 'I' for Inactive)
REMARK    1  A    between atoms: _1  and  _3
REMARK    2  A    between atoms: _3  and  _4
REMARK    3  A    between atoms: _3  and  _6
REMARK    4  A    between atoms: _6  and  _7
REMARK    5  A    between atoms: _12  and  _13
REMARK    6  A    between atoms: _15  and  _17
REMARK    7  A    between atoms: _17  and  _18
REMARK    8  A    between atoms: _17  and  _20
REMARK    9  A    between atoms: _20  and  _21
REMARK   10  A    between atoms: _27  and  _29
REMARK   11  A    between atoms: _29  and  _30
REMARK   12  A    between atoms: _29  and  _32
REMARK   13  A    between atoms: _32  and  _33
REMARK   14  A    between atoms: _33  and  _34
REMARK   15  A    between atoms: _34  and  _35
REMARK   16  A    between atoms: _44  and  _46
REMARK   17  A    between atoms: _46  and  _47
REMARK   18  A    between atoms: _46  and  _49
REMARK   19  A    between atoms: _49  and  _50
REMARK   20  A    between atoms: _50  and  _51
REMARK   21  A    between atoms: _56  and  _58
REMARK   22  A    between atoms: _58  and  _59
REMARK   23  A    between atoms: _58  and  _61
REMARK   24  A    between atoms: _61  and  _62
REMARK   25  A    between atoms: _65  and  _67
REMARK   26  A    between atoms: _67  and  _68
REMARK   27  A    between atoms: _67  and  _70
REMARK   28  A    between atoms: _70  and  _71
REMARK   29  A    between atoms: _81  and  _83
REMARK   30  A    between atoms: _83  and  _84
REMARK   31  A    between atoms: _83  and  _86
REMARK   32  A    between atoms: _89  and  _91
REMARK   33  A    between atoms: _91  and  _92
REMARK   34  A    between atoms: _91  and  _94
REMARK   35  A    between atoms: _94  and  _95
REMARK   36  A    between atoms: _98  and  _100
REMARK   37  A    between atoms: _100  and  _101
REMARK   38  A    between atoms: _100  and  _103
REMARK   39  A    between atoms: _103  and  _104
REMARK   40  A    between atoms: _106  and  _108
REMARK   41  A    between atoms: _108  and  _109
REMARK   42  A    between atoms: _108  and  _111
REMARK   43  A    between atoms: _111  and  _112
REMARK   44  A    between atoms: _116  and  _117
REMARK   45  A    between atoms: _123  and  _124
REMARK   46  A    between atoms: _130  and  _131
REMARK   47  A    between atoms: _136  and  _138
REMARK   48  A    between atoms: _138  and  _139
REMARK   49  A    between atoms: _141  and  _143
REMARK   50  A    between atoms: _143  and  _144
REMARK   51  A    between atoms: _143  and  _146
REMARK   52  A    between atoms: _146  and  _147
REMARK   53  A    between atoms: _150  and  _152
REMARK   54  A    between atoms: _152  and  _153
REMARK   55  A    between atoms: _152  and  _155
REMARK   56  A    between atoms: _159  and  _160
REMARK   57  A    between atoms: _165  and  _167
REMARK   58  A    between atoms: _167  and  _168
REMARK   59  A    between atoms: _167  and  _170
REMARK   60  A    between atoms: _172  and  _174
REMARK   61  A    between atoms: _174  and  _175
REMARK   62  A    between atoms: _174  and  _177
REMARK   63  A    between atoms: _177  and  _178
REMARK   64  A    between atoms: _178  and  _179
REMARK   65  A    between atoms: _183  and  _184
REMARK   66  A    between atoms: _190  and  _191
REMARK   67  A    between atoms: _196  and  _198
REMARK   68  A    between atoms: _198  and  _199
REMARK   69  A    between atoms: _198  and  _201
REMARK   70  A    between atoms: _201  and  _202
REMARK   71  A    between atoms: _204  and  _206
REMARK   72  A    between atoms: _206  and  _207
REMARK   73  A    between atoms: _206  and  _209
REMARK   74  A    between atoms: _209  and  _210
REMARK   75  A    between atoms: _213  and  _215
REMARK   76  A    between atoms: _215  and  _216
REMARK   77  A    between atoms: _215  and  _218
REMARK   78  A    between atoms: _220  and  _222
REMARK   79  A    between atoms: _222  and  _223
REMARK   80  A    between atoms: _222  and  _225
REMARK   81  A    between atoms: _225  and  _226
REMARK   82  A    between atoms: _229  and  _231
REMARK   83  A    between atoms: _231  and  _232
REMARK   84  A    between atoms: _231  and  _234
REMARK   85  A    between atoms: _234  and  _235
REMARK   86  A    between atoms: _238  and  _240
REMARK   87  A    between atoms: _240  and  _241
REMARK   88  A    between atoms: _240  and  _243
REMARK   89  A    between atoms: _243  and  _244
REMARK                            x       y       z     vdW  Elec       q    Type
REMARK                         _______ _______ _______ _____ _____    ______ ____
ROOT
ATOM      1  O   HOH     1      96.616  97.396 -51.305  0.00  0.00    +0.000 OA
ENDROOT
TORSDOF 0
REMARK  Name = ../refined-set-2016/4agl/4agl_pocket.pdb
REMARK  89 active torsions:
REMARK  status: ('A' for Active; 'I' for Inactive)
REMARK    1  A    between atoms: _1  and  _3
REMARK    2  A    between atoms: _3  and  _4
REMARK    3  A    between atoms: _3  and  _6
REMARK    4  A    between atoms: _6  and  _7
REMARK    5  A    between atoms: _12  and  _13
REMARK    6  A    between atoms: _15  and  _17
REMARK    7  A    between atoms: _17  and  _18
REMARK    8  A    between atoms: _17  and  _20
REMARK    9  A    between atoms: _20  and  _21
REMARK   10  A    between atoms: _27  and  _29
REMARK   11  A    between atoms: _29  and  _30
REMARK   12  A    between atoms: _29  and  _32
REMARK   13  A    between atoms: _32  and  _33
REMARK   14  A    between atoms: _33  and  _34
REMARK   15  A    between atoms: _34  and  _35
REMARK   16  A    between atoms: _44  and  _46
REMARK   17  A    between atoms: _46  and  _47
REMARK   18  A    between atoms: _46  and  _49
REMARK   19  A    between atoms: _49  and  _50
REMARK   20  A    between atoms: _50  and  _51
REMARK   21  A    between atoms: _56  and  _58
REMARK   22  A    between atoms: _58  and  _59
REMARK   23  A    between atoms: _58  and  _61
REMARK   24  A    between atoms: _61  and  _62
REMARK   25  A    between atoms: _65  and  _67
REMARK   26  A    between atoms: _67  and  _68
REMARK   27  A    between atoms: _67  and  _70
REMARK   28  A    between atoms: _70  and  _71
REMARK   29  A    between atoms: _81  and  _83
REMARK   30  A    between atoms: _83  and  _84
REMARK   31  A    between atoms: _83  and  _86
REMARK   32  A    between atoms: _89  and  _91
REMARK   33  A    between atoms: _91  and  _92
REMARK   34  A    between atoms: _91  and  _94
REMARK   35  A    between atoms: _94  and  _95
REMARK   36  A    between atoms: _98  and  _100
REMARK   37  A    between atoms: _100  and  _101
REMARK   38  A    between atoms: _100  and  _103
REMARK   39  A    between atoms: _103  and  _104
REMARK   40  A    between atoms: _106  and  _108
REMARK   41  A    between atoms: _108  and  _109
REMARK   42  A    between atoms: _108  and  _111
REMARK   43  A    between atoms: _111  and  _112
REMARK   44  A    between atoms: _116  and  _117
REMARK   45  A    between atoms: _123  and  _124
REMARK   46  A    between atoms: _130  and  _131
REMARK   47  A    between atoms: _136  and  _138
REMARK   48  A    between atoms: _138  and  _139
REMARK   49  A    between atoms: _141  and  _143
REMARK   50  A    between atoms: _143  and  _144
REMARK   51  A    between atoms: _143  and  _146
REMARK   52  A    between atoms: _146  and  _147
REMARK   53  A    between atoms: _150  and  _152
REMARK   54  A    between atoms: _152  and  _153
REMARK   55  A    between atoms: _152  and  _155
REMARK   56  A    between atoms: _159  and  _160
REMARK   57  A    between atoms: _165  and  _167
REMARK   58  A    between atoms: _167  and  _168
REMARK   59  A    between atoms: _167  and  _170
REMARK   60  A    between atoms: _172  and  _174
REMARK   61  A    between atoms: _174  and  _175
REMARK   62  A    between atoms: _174  and  _177
REMARK   63  A    between atoms: _177  and  _178
REMARK   64  A    between atoms: _178  and  _179
REMARK   65  A    between atoms: _183  and  _184
REMARK   66  A    between atoms: _190  and  _191
REMARK   67  A    between atoms: _196  and  _198
REMARK   68  A    between atoms: _198  and  _199
REMARK   69  A    between atoms: _198  and  _201
REMARK   70  A    between atoms: _201  and  _202
REMARK   71  A    between atoms: _204  and  _206
REMARK   72  A    between atoms: _206  and  _207
REMARK   73  A    between atoms: _206  and  _209
REMARK   74  A    between atoms: _209  and  _210
REMARK   75  A    between atoms: _213  and  _215
REMARK   76  A    between atoms: _215  and  _216
REMARK   77  A    between atoms: _215  and  _218
REMARK   78  A    between atoms: _220  and  _222
REMARK   79  A    between atoms: _222  and  _223
REMARK   80  A    between atoms: _222  and  _225
REMARK   81  A    between atoms: _225  and  _226
REMARK   82  A    between atoms: _229  and  _231
REMARK   83  A    between atoms: _231  and  _232
REMARK   84  A    between atoms: _231  and  _234
REMARK   85  A    between atoms: _234  and  _235
REMARK   86  A    between atoms: _238  and  _240
REMARK   87  A    between atoms: _240  and  _241
REMARK   88  A    between atoms: _240  and  _243
REMARK   89  A    between atoms: _243  and  _244
REMARK                            x       y       z     vdW  Elec       q    Type
REMARK                         _______ _______ _______ _____ _____    ______ ____
ROOT
ATOM      1  O   HOH     1      93.565  99.814 -49.245  0.00  0.00    +0.000 OA
ENDROOT
TORSDOF 0
REMARK  Name = ../refined-set-2016/4agl/4agl_pocket.pdb
REMARK  89 active torsions:
REMARK  status: ('A' for Active; 'I' for Inactive)
REMARK    1  A    between atoms: _1  and  _3
REMARK    2  A    between atoms: _3  and  _4
REMARK    3  A    between atoms: _3  and  _6
REMARK    4  A    between atoms: _6  and  _7
REMARK    5  A    between atoms: _12  and  _13
REMARK    6  A    between atoms: _15  and  _17
REMARK    7  A    between atoms: _17  and  _18
REMARK    8  A    between atoms: _17  and  _20
REMARK    9  A    between atoms: _20  and  _21
REMARK   10  A    between atoms: _27  and  _29
REMARK   11  A    between atoms: _29  and  _30
REMARK   12  A    between atoms: _29  and  _32
REMARK   13  A    between atoms: _32  and  _33
REMARK   14  A    between atoms: _33  and  _34
REMARK   15  A    between atoms: _34  and  _35
REMARK   16  A    between atoms: _44  and  _46
REMARK   17  A    between atoms: _46  and  _47
REMARK   18  A    between atoms: _46  and  _49
REMARK   19  A    between atoms: _49  and  _50
REMARK   20  A    between atoms: _50  and  _51
REMARK   21  A    between atoms: _56  and  _58
REMARK   22  A    between atoms: _58  and  _59
REMARK   23  A    between atoms: _58  and  _61
REMARK   24  A    between atoms: _61  and  _62
REMARK   25  A    between atoms: _65  and  _67
REMARK   26  A    between atoms: _67  and  _68
REMARK   27  A    between atoms: _67  and  _70
REMARK   28  A    between atoms: _70  and  _71
REMARK   29  A    between atoms: _81  and  _83
REMARK   30  A    between atoms: _83  and  _84
REMARK   31  A    between atoms: _83  and  _86
REMARK   32  A    between atoms: _89  and  _91
REMARK   33  A    between atoms: _91  and  _92
REMARK   34  A    between atoms: _91  and  _94
REMARK   35  A    between atoms: _94  and  _95
REMARK   36  A    between atoms: _98  and  _100
REMARK   37  A    between atoms: _100  and  _101
REMARK   38  A    between atoms: _100  and  _103
REMARK   39  A    between atoms: _103  and  _104
REMARK   40  A    between atoms: _106  and  _108
REMARK   41  A    between atoms: _108  and  _109
REMARK   42  A    between atoms: _108  and  _111
REMARK   43  A    between atoms: _111  and  _112
REMARK   44  A    between atoms: _116  and  _117
REMARK   45  A    between atoms: _123  and  _124
REMARK   46  A    between atoms: _130  and  _131
REMARK   47  A    between atoms: _136  and  _138
REMARK   48  A    between atoms: _138  and  _139
REMARK   49  A    between atoms: _141  and  _143
REMARK   50  A    between atoms: _143  and  _144
REMARK   51  A    between atoms: _143  and  _146
REMARK   52  A    between atoms: _146  and  _147
REMARK   53  A    between atoms: _150  and  _152
REMARK   54  A    between atoms: _152  and  _153
REMARK   55  A    between atoms: _152  and  _155
REMARK   56  A    between atoms: _159  and  _160
REMARK   57  A    between atoms: _165  and  _167
REMARK   58  A    between atoms: _167  and  _168
REMARK   59  A    between atoms: _167  and  _170
REMARK   60  A    between atoms: _172  and  _174
REMARK   61  A    between atoms: _174  and  _175
REMARK   62  A    between atoms: _174  and  _177
REMARK   63  A    between atoms: _177  and  _178
REMARK   64  A    between atoms: _178  and  _179
REMARK   65  A    between atoms: _183  and  _184
REMARK   66  A    between atoms: _190  and  _191
REMARK   67  A    between atoms: _196  and  _198
REMARK   68  A    between atoms: _198  and  _199
REMARK   69  A    between atoms: _198  and  _201
REMARK   70  A    between atoms: _201  and  _202
REMARK   71  A    between atoms: _204  and  _206
REMARK   72  A    between atoms: _206  and  _207
REMARK   73  A    between atoms: _206  and  _209
REMARK   74  A    between atoms: _209  and  _210
REMARK   75  A    between atoms: _213  and  _215
REMARK   76  A    between atoms: _215  and  _216
REMARK   77  A    between atoms: _215  and  _218
REMARK   78  A    between atoms: _220  and  _222
REMARK   79  A    between atoms: _222  and  _223
REMARK   80  A    between atoms: _222  and  _225
REMARK   81  A    between atoms: _225  and  _226
REMARK   82  A    between atoms: _229  and  _231
REMARK   83  A    between atoms: _231  and  _232
REMARK   84  A    between atoms: _231  and  _234
REMARK   85  A    between atoms: _234  and  _235
REMARK   86  A    between atoms: _238  and  _240
REMARK   87  A    between atoms: _240  and  _241
REMARK   88  A    between atoms: _240  and  _243
REMARK   89  A    between atoms: _243  and  _244
REMARK                            x       y       z     vdW  Elec       q    Type
REMARK                         _______ _______ _______ _____ _____    ______ ____
ROOT
ATOM      1  O   HOH     1      94.788  94.378 -52.557  0.00  0.00    +0.000 OA
ENDROOT
TORSDOF 0
REMARK  Name = ../refined-set-2016/4agl/4agl_pocket.pdb
REMARK  89 active torsions:
REMARK  status: ('A' for Active; 'I' for Inactive)
REMARK    1  A    between atoms: _1  and  _3
REMARK    2  A    between atoms: _3  and  _4
REMARK    3  A    between atoms: _3  and  _6
REMARK    4  A    between atoms: _6  and  _7
REMARK    5  A    between atoms: _12  and  _13
REMARK    6  A    between atoms: _15  and  _17
REMARK    7  A    between atoms: _17  and  _18
REMARK    8  A    between atoms: _17  and  _20
REMARK    9  A    between atoms: _20  and  _21
REMARK   10  A    between atoms: _27  and  _29
REMARK   11  A    between atoms: _29  and  _30
REMARK   12  A    between atoms: _29  and  _32
REMARK   13  A    between atoms: _32  and  _33
REMARK   14  A    between atoms: _33  and  _34
REMARK   15  A    between atoms: _34  and  _35
REMARK   16  A    between atoms: _44  and  _46
REMARK   17  A    between atoms: _46  and  _47
REMARK   18  A    between atoms: _46  and  _49
REMARK   19  A    between atoms: _49  and  _50
REMARK   20  A    between atoms: _50  and  _51
REMARK   21  A    between atoms: _56  and  _58
REMARK   22  A    between atoms: _58  and  _59
REMARK   23  A    between atoms: _58  and  _61
REMARK   24  A    between atoms: _61  and  _62
REMARK   25  A    between atoms: _65  and  _67
REMARK   26  A    between atoms: _67  and  _68
REMARK   27  A    between atoms: _67  and  _70
REMARK   28  A    between atoms: _70  and  _71
REMARK   29  A    between atoms: _81  and  _83
REMARK   30  A    between atoms: _83  and  _84
REMARK   31  A    between atoms: _83  and  _86
REMARK   32  A    between atoms: _89  and  _91
REMARK   33  A    between atoms: _91  and  _92
REMARK   34  A    between atoms: _91  and  _94
REMARK   35  A    between atoms: _94  and  _95
REMARK   36  A    between atoms: _98  and  _100
REMARK   37  A    between atoms: _100  and  _101
REMARK   38  A    between atoms: _100  and  _103
REMARK   39  A    between atoms: _103  and  _104
REMARK   40  A    between atoms: _106  and  _108
REMARK   41  A    between atoms: _108  and  _109
REMARK   42  A    between atoms: _108  and  _111
REMARK   43  A    between atoms: _111  and  _112
REMARK   44  A    between atoms: _116  and  _117
REMARK   45  A    between atoms: _123  and  _124
REMARK   46  A    between atoms: _130  and  _131
REMARK   47  A    between atoms: _136  and  _138
REMARK   48  A    between atoms: _138  and  _139
REMARK   49  A    between atoms: _141  and  _143
REMARK   50  A    between atoms: _143  and  _144
REMARK   51  A    between atoms: _143  and  _146
REMARK   52  A    between atoms: _146  and  _147
REMARK   53  A    between atoms: _150  and  _152
REMARK   54  A    between atoms: _152  and  _153
REMARK   55  A    between atoms: _152  and  _155
REMARK   56  A    between atoms: _159  and  _160
REMARK   57  A    between atoms: _165  and  _167
REMARK   58  A    between atoms: _167  and  _168
REMARK   59  A    between atoms: _167  and  _170
REMARK   60  A    between atoms: _172  and  _174
REMARK   61  A    between atoms: _174  and  _175
REMARK   62  A    between atoms: _174  and  _177
REMARK   63  A    between atoms: _177  and  _178
REMARK   64  A    between atoms: _178  and  _179
REMARK   65  A    between atoms: _183  and  _184
REMARK   66  A    between atoms: _190  and  _191
REMARK   67  A    between atoms: _196  and  _198
REMARK   68  A    between atoms: _198  and  _199
REMARK   69  A    between atoms: _198  and  _201
REMARK   70  A    between atoms: _201  and  _202
REMARK   71  A    between atoms: _204  and  _206
REMARK   72  A    between atoms: _206  and  _207
REMARK   73  A    between atoms: _206  and  _209
REMARK   74  A    between atoms: _209  and  _210
REMARK   75  A    between atoms: _213  and  _215
REMARK   76  A    between atoms: _215  and  _216
REMARK   77  A    between atoms: _215  and  _218
REMARK   78  A    between atoms: _220  and  _222
REMARK   79  A    between atoms: _222  and  _223
REMARK   80  A    between atoms: _222  and  _225
REMARK   81  A    between atoms: _225  and  _226
REMARK   82  A    between atoms: _229  and  _231
REMARK   83  A    between atoms: _231  and  _232
REMARK   84  A    between atoms: _231  and  _234
REMARK   85  A    between atoms: _234  and  _235
REMARK   86  A    between atoms: _238  and  _240
REMARK   87  A    between atoms: _240  and  _241
REMARK   88  A    between atoms: _240  and  _243
REMARK   89  A    between atoms: _243  and  _244
REMARK                            x       y       z     vdW  Elec       q    Type
REMARK                         _______ _______ _______ _____ _____    ______ ____
ROOT
ATOM      1  O   HOH     1      93.136  96.470 -53.219  0.00  0.00    +0.000 OA
ENDROOT
TORSDOF 0
REMARK  Name = ../refined-set-2016/4agl/4agl_pocket.pdb
REMARK  89 active torsions:
REMARK  status: ('A' for Active; 'I' for Inactive)
REMARK    1  A    between atoms: _1  and  _3
REMARK    2  A    between atoms: _3  and  _4
REMARK    3  A    between atoms: _3  and  _6
REMARK    4  A    between atoms: _6  and  _7
REMARK    5  A    between atoms: _12  and  _13
REMARK    6  A    between atoms: _15  and  _17
REMARK    7  A    between atoms: _17  and  _18
REMARK    8  A    between atoms: _17  and  _20
REMARK    9  A    between atoms: _20  and  _21
REMARK   10  A    between atoms: _27  and  _29
REMARK   11  A    between atoms: _29  and  _30
REMARK   12  A    between atoms: _29  and  _32
REMARK   13  A    between atoms: _32  and  _33
REMARK   14  A    between atoms: _33  and  _34
REMARK   15  A    between atoms: _34  and  _35
REMARK   16  A    between atoms: _44  and  _46
REMARK   17  A    between atoms: _46  and  _47
REMARK   18  A    between atoms: _46  and  _49
REMARK   19  A    between atoms: _49  and  _50
REMARK   20  A    between atoms: _50  and  _51
REMARK   21  A    between atoms: _56  and  _58
REMARK   22  A    between atoms: _58  and  _59
REMARK   23  A    between atoms: _58  and  _61
REMARK   24  A    between atoms: _61  and  _62
REMARK   25  A    between atoms: _65  and  _67
REMARK   26  A    between atoms: _67  and  _68
REMARK   27  A    between atoms: _67  and  _70
REMARK   28  A    between atoms: _70  and  _71
REMARK   29  A    between atoms: _81  and  _83
REMARK   30  A    between atoms: _83  and  _84
REMARK   31  A    between atoms: _83  and  _86
REMARK   32  A    between atoms: _89  and  _91
REMARK   33  A    between atoms: _91  and  _92
REMARK   34  A    between atoms: _91  and  _94
REMARK   35  A    between atoms: _94  and  _95
REMARK   36  A    between atoms: _98  and  _100
REMARK   37  A    between atoms: _100  and  _101
REMARK   38  A    between atoms: _100  and  _103
REMARK   39  A    between atoms: _103  and  _104
REMARK   40  A    between atoms: _106  and  _108
REMARK   41  A    between atoms: _108  and  _109
REMARK   42  A    between atoms: _108  and  _111
REMARK   43  A    between atoms: _111  and  _112
REMARK   44  A    between atoms: _116  and  _117
REMARK   45  A    between atoms: _123  and  _124
REMARK   46  A    between atoms: _130  and  _131
REMARK   47  A    between atoms: _136  and  _138
REMARK   48  A    between atoms: _138  and  _139
REMARK   49  A    between atoms: _141  and  _143
REMARK   50  A    between atoms: _143  and  _144
REMARK   51  A    between atoms: _143  and  _146
REMARK   52  A    between atoms: _146  and  _147
REMARK   53  A    between atoms: _150  and  _152
REMARK   54  A    between atoms: _152  and  _153
REMARK   55  A    between atoms: _152  and  _155
REMARK   56  A    between atoms: _159  and  _160
REMARK   57  A    between atoms: _165  and  _167
REMARK   58  A    between atoms: _167  and  _168
REMARK   59  A    between atoms: _167  and  _170
REMARK   60  A    between atoms: _172  and  _174
REMARK   61  A    between atoms: _174  and  _175
REMARK   62  A    between atoms: _174  and  _177
REMARK   63  A    between atoms: _177  and  _178
REMARK   64  A    between atoms: _178  and  _179
REMARK   65  A    between atoms: _183  and  _184
REMARK   66  A    between atoms: _190  and  _191
REMARK   67  A    between atoms: _196  and  _198
REMARK   68  A    between atoms: _198  and  _199
REMARK   69  A    between atoms: _198  and  _201
REMARK   70  A    between atoms: _201  and  _202
REMARK   71  A    between atoms: _204  and  _206
REMARK   72  A    between atoms: _206  and  _207
REMARK   73  A    between atoms: _206  and  _209
REMARK   74  A    between atoms: _209  and  _210
REMARK   75  A    between atoms: _213  and  _215
REMARK   76  A    between atoms: _215  and  _216
REMARK   77  A    between atoms: _215  and  _218
REMARK   78  A    between atoms: _220  and  _222
REMARK   79  A    between atoms: _222  and  _223
REMARK   80  A    between atoms: _222  and  _225
REMARK   81  A    between atoms: _225  and  _226
REMARK   82  A    between atoms: _229  and  _231
REMARK   83  A    between atoms: _231  and  _232
REMARK   84  A    between atoms: _231  and  _234
REMARK   85  A    between atoms: _234  and  _235
REMARK   86  A    between atoms: _238  and  _240
REMARK   87  A    between atoms: _240  and  _241
REMARK   88  A    between atoms: _240  and  _243
REMARK   89  A    between atoms: _243  and  _244
REMARK                            x       y       z     vdW  Elec       q    Type
REMARK                         _______ _______ _______ _____ _____    ______ ____
ROOT
ATOM      1  O   HOH     1      90.743  91.230 -50.743  0.00  0.00    +0.000 OA
ENDROOT
TORSDOF 0
REMARK  Name = ../refined-set-2016/4agl/4agl_pocket.pdb
REMARK  89 active torsions:
REMARK  status: ('A' for Active; 'I' for Inactive)
REMARK    1  A    between atoms: _1  and  _3
REMARK    2  A    between atoms: _3  and  _4
REMARK    3  A    between atoms: _3  and  _6
REMARK    4  A    between atoms: _6  and  _7
REMARK    5  A    between atoms: _12  and  _13
REMARK    6  A    between atoms: _15  and  _17
REMARK    7  A    between atoms: _17  and  _18
REMARK    8  A    between atoms: _17  and  _20
REMARK    9  A    between atoms: _20  and  _21
REMARK   10  A    between atoms: _27  and  _29
REMARK   11  A    between atoms: _29  and  _30
REMARK   12  A    between atoms: _29  and  _32
REMARK   13  A    between atoms: _32  and  _33
REMARK   14  A    between atoms: _33  and  _34
REMARK   15  A    between atoms: _34  and  _35
REMARK   16  A    between atoms: _44  and  _46
REMARK   17  A    between atoms: _46  and  _47
REMARK   18  A    between atoms: _46  and  _49
REMARK   19  A    between atoms: _49  and  _50
REMARK   20  A    between atoms: _50  and  _51
REMARK   21  A    between atoms: _56  and  _58
REMARK   22  A    between atoms: _58  and  _59
REMARK   23  A    between atoms: _58  and  _61
REMARK   24  A    between atoms: _61  and  _62
REMARK   25  A    between atoms: _65  and  _67
REMARK   26  A    between atoms: _67  and  _68
REMARK   27  A    between atoms: _67  and  _70
REMARK   28  A    between atoms: _70  and  _71
REMARK   29  A    between atoms: _81  and  _83
REMARK   30  A    between atoms: _83  and  _84
REMARK   31  A    between atoms: _83  and  _86
REMARK   32  A    between atoms: _89  and  _91
REMARK   33  A    between atoms: _91  and  _92
REMARK   34  A    between atoms: _91  and  _94
REMARK   35  A    between atoms: _94  and  _95
REMARK   36  A    between atoms: _98  and  _100
REMARK   37  A    between atoms: _100  and  _101
REMARK   38  A    between atoms: _100  and  _103
REMARK   39  A    between atoms: _103  and  _104
REMARK   40  A    between atoms: _106  and  _108
REMARK   41  A    between atoms: _108  and  _109
REMARK   42  A    between atoms: _108  and  _111
REMARK   43  A    between atoms: _111  and  _112
REMARK   44  A    between atoms: _116  and  _117
REMARK   45  A    between atoms: _123  and  _124
REMARK   46  A    between atoms: _130  and  _131
REMARK   47  A    between atoms: _136  and  _138
REMARK   48  A    between atoms: _138  and  _139
REMARK   49  A    between atoms: _141  and  _143
REMARK   50  A    between atoms: _143  and  _144
REMARK   51  A    between atoms: _143  and  _146
REMARK   52  A    between atoms: _146  and  _147
REMARK   53  A    between atoms: _150  and  _152
REMARK   54  A    between atoms: _152  and  _153
REMARK   55  A    between atoms: _152  and  _155
REMARK   56  A    between atoms: _159  and  _160
REMARK   57  A    between atoms: _165  and  _167
REMARK   58  A    between atoms: _167  and  _168
REMARK   59  A    between atoms: _167  and  _170
REMARK   60  A    between atoms: _172  and  _174
REMARK   61  A    between atoms: _174  and  _175
REMARK   62  A    between atoms: _174  and  _177
REMARK   63  A    between atoms: _177  and  _178
REMARK   64  A    between atoms: _178  and  _179
REMARK   65  A    between atoms: _183  and  _184
REMARK   66  A    between atoms: _190  and  _191
REMARK   67  A    between atoms: _196  and  _198
REMARK   68  A    between atoms: _198  and  _199
REMARK   69  A    between atoms: _198  and  _201
REMARK   70  A    between atoms: _201  and  _202
REMARK   71  A    between atoms: _204  and  _206
REMARK   72  A    between atoms: _206  and  _207
REMARK   73  A    between atoms: _206  and  _209
REMARK   74  A    between atoms: _209  and  _210
REMARK   75  A    between atoms: _213  and  _215
REMARK   76  A    between atoms: _215  and  _216
REMARK   77  A    between atoms: _215  and  _218
REMARK   78  A    between atoms: _220  and  _222
REMARK   79  A    between atoms: _222  and  _223
REMARK   80  A    between atoms: _222  and  _225
REMARK   81  A    between atoms: _225  and  _226
REMARK   82  A    between atoms: _229  and  _231
REMARK   83  A    between atoms: _231  and  _232
REMARK   84  A    between atoms: _231  and  _234
REMARK   85  A    between atoms: _234  and  _235
REMARK   86  A    between atoms: _238  and  _240
REMARK   87  A    between atoms: _240  and  _241
REMARK   88  A    between atoms: _240  and  _243
REMARK   89  A    between atoms: _243  and  _244
REMARK                            x       y       z     vdW  Elec       q    Type
REMARK                         _______ _______ _______ _____ _____    ______ ____
ROOT
ATOM      1  O   HOH     1      88.701  95.519 -48.748  0.00  0.00    +0.000 OA
ENDROOT
TORSDOF 0
REMARK  Name = ../refined-set-2016/4agl/4agl_pocket.pdb
REMARK  89 active torsions:
REMARK  status: ('A' for Active; 'I' for Inactive)
REMARK    1  A    between atoms: _1  and  _3
REMARK    2  A    between atoms: _3  and  _4
REMARK    3  A    between atoms: _3  and  _6
REMARK    4  A    between atoms: _6  and  _7
REMARK    5  A    between atoms: _12  and  _13
REMARK    6  A    between atoms: _15  and  _17
REMARK    7  A    between atoms: _17  and  _18
REMARK    8  A    between atoms: _17  and  _20
REMARK    9  A    between atoms: _20  and  _21
REMARK   10  A    between atoms: _27  and  _29
REMARK   11  A    between atoms: _29  and  _30
REMARK   12  A    between atoms: _29  and  _32
REMARK   13  A    between atoms: _32  and  _33
REMARK   14  A    between atoms: _33  and  _34
REMARK   15  A    between atoms: _34  and  _35
REMARK   16  A    between atoms: _44  and  _46
REMARK   17  A    between atoms: _46  and  _47
REMARK   18  A    between atoms: _46  and  _49
REMARK   19  A    between atoms: _49  and  _50
REMARK   20  A    between atoms: _50  and  _51
REMARK   21  A    between atoms: _56  and  _58
REMARK   22  A    between atoms: _58  and  _59
REMARK   23  A    between atoms: _58  and  _61
REMARK   24  A    between atoms: _61  and  _62
REMARK   25  A    between atoms: _65  and  _67
REMARK   26  A    between atoms: _67  and  _68
REMARK   27  A    between atoms: _67  and  _70
REMARK   28  A    between atoms: _70  and  _71
REMARK   29  A    between atoms: _81  and  _83
REMARK   30  A    between atoms: _83  and  _84
REMARK   31  A    between atoms: _83  and  _86
REMARK   32  A    between atoms: _89  and  _91
REMARK   33  A    between atoms: _91  and  _92
REMARK   34  A    between atoms: _91  and  _94
REMARK   35  A    between atoms: _94  and  _95
REMARK   36  A    between atoms: _98  and  _100
REMARK   37  A    between atoms: _100  and  _101
REMARK   38  A    between atoms: _100  and  _103
REMARK   39  A    between atoms: _103  and  _104
REMARK   40  A    between atoms: _106  and  _108
REMARK   41  A    between atoms: _108  and  _109
REMARK   42  A    between atoms: _108  and  _111
REMARK   43  A    between atoms: _111  and  _112
REMARK   44  A    between atoms: _116  and  _117
REMARK   45  A    between atoms: _123  and  _124
REMARK   46  A    between atoms: _130  and  _131
REMARK   47  A    between atoms: _136  and  _138
REMARK   48  A    between atoms: _138  and  _139
REMARK   49  A    between atoms: _141  and  _143
REMARK   50  A    between atoms: _143  and  _144
REMARK   51  A    between atoms: _143  and  _146
REMARK   52  A    between atoms: _146  and  _147
REMARK   53  A    between atoms: _150  and  _152
REMARK   54  A    between atoms: _152  and  _153
REMARK   55  A    between atoms: _152  and  _155
REMARK   56  A    between atoms: _159  and  _160
REMARK   57  A    between atoms: _165  and  _167
REMARK   58  A    between atoms: _167  and  _168
REMARK   59  A    between atoms: _167  and  _170
REMARK   60  A    between atoms: _172  and  _174
REMARK   61  A    between atoms: _174  and  _175
REMARK   62  A    between atoms: _174  and  _177
REMARK   63  A    between atoms: _177  and  _178
REMARK   64  A    between atoms: _178  and  _179
REMARK   65  A    between atoms: _183  and  _184
REMARK   66  A    between atoms: _190  and  _191
REMARK   67  A    between atoms: _196  and  _198
REMARK   68  A    between atoms: _198  and  _199
REMARK   69  A    between atoms: _198  and  _201
REMARK   70  A    between atoms: _201  and  _202
REMARK   71  A    between atoms: _204  and  _206
REMARK   72  A    between atoms: _206  and  _207
REMARK   73  A    between atoms: _206  and  _209
REMARK   74  A    between atoms: _209  and  _210
REMARK   75  A    between atoms: _213  and  _215
REMARK   76  A    between atoms: _215  and  _216
REMARK   77  A    between atoms: _215  and  _218
REMARK   78  A    between atoms: _220  and  _222
REMARK   79  A    between atoms: _222  and  _223
REMARK   80  A    between atoms: _222  and  _225
REMARK   81  A    between atoms: _225  and  _226
REMARK   82  A    between atoms: _229  and  _231
REMARK   83  A    between atoms: _231  and  _232
REMARK   84  A    between atoms: _231  and  _234
REMARK   85  A    between atoms: _234  and  _235
REMARK   86  A    between atoms: _238  and  _240
REMARK   87  A    between atoms: _240  and  _241
REMARK   88  A    between atoms: _240  and  _243
REMARK   89  A    between atoms: _243  and  _244
REMARK                            x       y       z     vdW  Elec       q    Type
REMARK                         _______ _______ _______ _____ _____    ______ ____
ROOT
ATOM      1  O   HOH     1      92.274  93.423 -52.659  0.00  0.00    +0.000 OA
ENDROOT
TORSDOF 0
REMARK  Name = ../refined-set-2016/4agl/4agl_pocket.pdb
REMARK  89 active torsions:
REMARK  status: ('A' for Active; 'I' for Inactive)
REMARK    1  A    between atoms: _1  and  _3
REMARK    2  A    between atoms: _3  and  _4
REMARK    3  A    between atoms: _3  and  _6
REMARK    4  A    between atoms: _6  and  _7
REMARK    5  A    between atoms: _12  and  _13
REMARK    6  A    between atoms: _15  and  _17
REMARK    7  A    between atoms: _17  and  _18
REMARK    8  A    between atoms: _17  and  _20
REMARK    9  A    between atoms: _20  and  _21
REMARK   10  A    between atoms: _27  and  _29
REMARK   11  A    between atoms: _29  and  _30
REMARK   12  A    between atoms: _29  and  _32
REMARK   13  A    between atoms: _32  and  _33
REMARK   14  A    between atoms: _33  and  _34
REMARK   15  A    between atoms: _34  and  _35
REMARK   16  A    between atoms: _44  and  _46
REMARK   17  A    between atoms: _46  and  _47
REMARK   18  A    between atoms: _46  and  _49
REMARK   19  A    between atoms: _49  and  _50
REMARK   20  A    between atoms: _50  and  _51
REMARK   21  A    between atoms: _56  and  _58
REMARK   22  A    between atoms: _58  and  _59
REMARK   23  A    between atoms: _58  and  _61
REMARK   24  A    between atoms: _61  and  _62
REMARK   25  A    between atoms: _65  and  _67
REMARK   26  A    between atoms: _67  and  _68
REMARK   27  A    between atoms: _67  and  _70
REMARK   28  A    between atoms: _70  and  _71
REMARK   29  A    between atoms: _81  and  _83
REMARK   30  A    between atoms: _83  and  _84
REMARK   31  A    between atoms: _83  and  _86
REMARK   32  A    between atoms: _89  and  _91
REMARK   33  A    between atoms: _91  and  _92
REMARK   34  A    between atoms: _91  and  _94
REMARK   35  A    between atoms: _94  and  _95
REMARK   36  A    between atoms: _98  and  _100
REMARK   37  A    between atoms: _100  and  _101
REMARK   38  A    between atoms: _100  and  _103
REMARK   39  A    between atoms: _103  and  _104
REMARK   40  A    between atoms: _106  and  _108
REMARK   41  A    between atoms: _108  and  _109
REMARK   42  A    between atoms: _108  and  _111
REMARK   43  A    between atoms: _111  and  _112
REMARK   44  A    between atoms: _116  and  _117
REMARK   45  A    between atoms: _123  and  _124
REMARK   46  A    between atoms: _130  and  _131
REMARK   47  A    between atoms: _136  and  _138
REMARK   48  A    between atoms: _138  and  _139
REMARK   49  A    between atoms: _141  and  _143
REMARK   50  A    between atoms: _143  and  _144
REMARK   51  A    between atoms: _143  and  _146
REMARK   52  A    between atoms: _146  and  _147
REMARK   53  A    between atoms: _150  and  _152
REMARK   54  A    between atoms: _152  and  _153
REMARK   55  A    between atoms: _152  and  _155
REMARK   56  A    between atoms: _159  and  _160
REMARK   57  A    between atoms: _165  and  _167
REMARK   58  A    between atoms: _167  and  _168
REMARK   59  A    between atoms: _167  and  _170
REMARK   60  A    between atoms: _172  and  _174
REMARK   61  A    between atoms: _174  and  _175
REMARK   62  A    between atoms: _174  and  _177
REMARK   63  A    between atoms: _177  and  _178
REMARK   64  A    between atoms: _178  and  _179
REMARK   65  A    between atoms: _183  and  _184
REMARK   66  A    between atoms: _190  and  _191
REMARK   67  A    between atoms: _196  and  _198
REMARK   68  A    between atoms: _198  and  _199
REMARK   69  A    between atoms: _198  and  _201
REMARK   70  A    between atoms: _201  and  _202
REMARK   71  A    between atoms: _204  and  _206
REMARK   72  A    between atoms: _206  and  _207
REMARK   73  A    between atoms: _206  and  _209
REMARK   74  A    between atoms: _209  and  _210
REMARK   75  A    between atoms: _213  and  _215
REMARK   76  A    between atoms: _215  and  _216
REMARK   77  A    between atoms: _215  and  _218
REMARK   78  A    between atoms: _220  and  _222
REMARK   79  A    between atoms: _222  and  _223
REMARK   80  A    between atoms: _222  and  _225
REMARK   81  A    between atoms: _225  and  _226
REMARK   82  A    between atoms: _229  and  _231
REMARK   83  A    between atoms: _231  and  _232
REMARK   84  A    between atoms: _231  and  _234
REMARK   85  A    between atoms: _234  and  _235
REMARK   86  A    between atoms: _238  and  _240
REMARK   87  A    between atoms: _240  and  _241
REMARK   88  A    between atoms: _240  and  _243
REMARK   89  A    between atoms: _243  and  _244
REMARK                            x       y       z     vdW  Elec       q    Type
REMARK                         _______ _______ _______ _____ _____    ______ ____
ROOT
ATOM      1  O   HOH     1      92.537  87.842 -48.379  0.00  0.00    +0.000 OA
ENDROOT
TORSDOF 0
REMARK  Name = ../refined-set-2016/4agl/4agl_pocket.pdb
REMARK  89 active torsions:
REMARK  status: ('A' for Active; 'I' for Inactive)
REMARK    1  A    between atoms: _1  and  _3
REMARK    2  A    between atoms: _3  and  _4
REMARK    3  A    between atoms: _3  and  _6
REMARK    4  A    between atoms: _6  and  _7
REMARK    5  A    between atoms: _12  and  _13
REMARK    6  A    between atoms: _15  and  _17
REMARK    7  A    between atoms: _17  and  _18
REMARK    8  A    between atoms: _17  and  _20
REMARK    9  A    between atoms: _20  and  _21
REMARK   10  A    between atoms: _27  and  _29
REMARK   11  A    between atoms: _29  and  _30
REMARK   12  A    between atoms: _29  and  _32
REMARK   13  A    between atoms: _32  and  _33
REMARK   14  A    between atoms: _33  and  _34
REMARK   15  A    between atoms: _34  and  _35
REMARK   16  A    between atoms: _44  and  _46
REMARK   17  A    between atoms: _46  and  _47
REMARK   18  A    between atoms: _46  and  _49
REMARK   19  A    between atoms: _49  and  _50
REMARK   20  A    between atoms: _50  and  _51
REMARK   21  A    between atoms: _56  and  _58
REMARK   22  A    between atoms: _58  and  _59
REMARK   23  A    between atoms: _58  and  _61
REMARK   24  A    between atoms: _61  and  _62
REMARK   25  A    between atoms: _65  and  _67
REMARK   26  A    between atoms: _67  and  _68
REMARK   27  A    between atoms: _67  and  _70
REMARK   28  A    between atoms: _70  and  _71
REMARK   29  A    between atoms: _81  and  _83
REMARK   30  A    between atoms: _83  and  _84
REMARK   31  A    between atoms: _83  and  _86
REMARK   32  A    between atoms: _89  and  _91
REMARK   33  A    between atoms: _91  and  _92
REMARK   34  A    between atoms: _91  and  _94
REMARK   35  A    between atoms: _94  and  _95
REMARK   36  A    between atoms: _98  and  _100
REMARK   37  A    between atoms: _100  and  _101
REMARK   38  A    between atoms: _100  and  _103
REMARK   39  A    between atoms: _103  and  _104
REMARK   40  A    between atoms: _106  and  _108
REMARK   41  A    between atoms: _108  and  _109
REMARK   42  A    between atoms: _108  and  _111
REMARK   43  A    between atoms: _111  and  _112
REMARK   44  A    between atoms: _116  and  _117
REMARK   45  A    between atoms: _123  and  _124
REMARK   46  A    between atoms: _130  and  _131
REMARK   47  A    between atoms: _136  and  _138
REMARK   48  A    between atoms: _138  and  _139
REMARK   49  A    between atoms: _141  and  _143
REMARK   50  A    between atoms: _143  and  _144
REMARK   51  A    between atoms: _143  and  _146
REMARK   52  A    between atoms: _146  and  _147
REMARK   53  A    between atoms: _150  and  _152
REMARK   54  A    between atoms: _152  and  _153
REMARK   55  A    between atoms: _152  and  _155
REMARK   56  A    between atoms: _159  and  _160
REMARK   57  A    between atoms: _165  and  _167
REMARK   58  A    between atoms: _167  and  _168
REMARK   59  A    between atoms: _167  and  _170
REMARK   60  A    between atoms: _172  and  _174
REMARK   61  A    between atoms: _174  and  _175
REMARK   62  A    between atoms: _174  and  _177
REMARK   63  A    between atoms: _177  and  _178
REMARK   64  A    between atoms: _178  and  _179
REMARK   65  A    between atoms: _183  and  _184
REMARK   66  A    between atoms: _190  and  _191
REMARK   67  A    between atoms: _196  and  _198
REMARK   68  A    between atoms: _198  and  _199
REMARK   69  A    between atoms: _198  and  _201
REMARK   70  A    between atoms: _201  and  _202
REMARK   71  A    between atoms: _204  and  _206
REMARK   72  A    between atoms: _206  and  _207
REMARK   73  A    between atoms: _206  and  _209
REMARK   74  A    between atoms: _209  and  _210
REMARK   75  A    between atoms: _213  and  _215
REMARK   76  A    between atoms: _215  and  _216
REMARK   77  A    between atoms: _215  and  _218
REMARK   78  A    between atoms: _220  and  _222
REMARK   79  A    between atoms: _222  and  _223
REMARK   80  A    between atoms: _222  and  _225
REMARK   81  A    between atoms: _225  and  _226
REMARK   82  A    between atoms: _229  and  _231
REMARK   83  A    between atoms: _231  and  _232
REMARK   84  A    between atoms: _231  and  _234
REMARK   85  A    between atoms: _234  and  _235
REMARK   86  A    between atoms: _238  and  _240
REMARK   87  A    between atoms: _240  and  _241
REMARK   88  A    between atoms: _240  and  _243
REMARK   89  A    between atoms: _243  and  _244
REMARK                            x       y       z     vdW  Elec       q    Type
REMARK                         _______ _______ _______ _____ _____    ______ ____
ROOT
ATOM      1  O   HOH     1      90.735  86.430 -50.269  0.00  0.00    +0.000 OA
ENDROOT
TORSDOF 0
REMARK  Name = ../refined-set-2016/4agl/4agl_pocket.pdb
REMARK  89 active torsions:
REMARK  status: ('A' for Active; 'I' for Inactive)
REMARK    1  A    between atoms: _1  and  _3
REMARK    2  A    between atoms: _3  and  _4
REMARK    3  A    between atoms: _3  and  _6
REMARK    4  A    between atoms: _6  and  _7
REMARK    5  A    between atoms: _12  and  _13
REMARK    6  A    between atoms: _15  and  _17
REMARK    7  A    between atoms: _17  and  _18
REMARK    8  A    between atoms: _17  and  _20
REMARK    9  A    between atoms: _20  and  _21
REMARK   10  A    between atoms: _27  and  _29
REMARK   11  A    between atoms: _29  and  _30
REMARK   12  A    between atoms: _29  and  _32
REMARK   13  A    between atoms: _32  and  _33
REMARK   14  A    between atoms: _33  and  _34
REMARK   15  A    between atoms: _34  and  _35
REMARK   16  A    between atoms: _44  and  _46
REMARK   17  A    between atoms: _46  and  _47
REMARK   18  A    between atoms: _46  and  _49
REMARK   19  A    between atoms: _49  and  _50
REMARK   20  A    between atoms: _50  and  _51
REMARK   21  A    between atoms: _56  and  _58
REMARK   22  A    between atoms: _58  and  _59
REMARK   23  A    between atoms: _58  and  _61
REMARK   24  A    between atoms: _61  and  _62
REMARK   25  A    between atoms: _65  and  _67
REMARK   26  A    between atoms: _67  and  _68
REMARK   27  A    between atoms: _67  and  _70
REMARK   28  A    between atoms: _70  and  _71
REMARK   29  A    between atoms: _81  and  _83
REMARK   30  A    between atoms: _83  and  _84
REMARK   31  A    between atoms: _83  and  _86
REMARK   32  A    between atoms: _89  and  _91
REMARK   33  A    between atoms: _91  and  _92
REMARK   34  A    between atoms: _91  and  _94
REMARK   35  A    between atoms: _94  and  _95
REMARK   36  A    between atoms: _98  and  _100
REMARK   37  A    between atoms: _100  and  _101
REMARK   38  A    between atoms: _100  and  _103
REMARK   39  A    between atoms: _103  and  _104
REMARK   40  A    between atoms: _106  and  _108
REMARK   41  A    between atoms: _108  and  _109
REMARK   42  A    between atoms: _108  and  _111
REMARK   43  A    between atoms: _111  and  _112
REMARK   44  A    between atoms: _116  and  _117
REMARK   45  A    between atoms: _123  and  _124
REMARK   46  A    between atoms: _130  and  _131
REMARK   47  A    between atoms: _136  and  _138
REMARK   48  A    between atoms: _138  and  _139
REMARK   49  A    between atoms: _141  and  _143
REMARK   50  A    between atoms: _143  and  _144
REMARK   51  A    between atoms: _143  and  _146
REMARK   52  A    between atoms: _146  and  _147
REMARK   53  A    between atoms: _150  and  _152
REMARK   54  A    between atoms: _152  and  _153
REMARK   55  A    between atoms: _152  and  _155
REMARK   56  A    between atoms: _159  and  _160
REMARK   57  A    between atoms: _165  and  _167
REMARK   58  A    between atoms: _167  and  _168
REMARK   59  A    between atoms: _167  and  _170
REMARK   60  A    between atoms: _172  and  _174
REMARK   61  A    between atoms: _174  and  _175
REMARK   62  A    between atoms: _174  and  _177
REMARK   63  A    between atoms: _177  and  _178
REMARK   64  A    between atoms: _178  and  _179
REMARK   65  A    between atoms: _183  and  _184
REMARK   66  A    between atoms: _190  and  _191
REMARK   67  A    between atoms: _196  and  _198
REMARK   68  A    between atoms: _198  and  _199
REMARK   69  A    between atoms: _198  and  _201
REMARK   70  A    between atoms: _201  and  _202
REMARK   71  A    between atoms: _204  and  _206
REMARK   72  A    between atoms: _206  and  _207
REMARK   73  A    between atoms: _206  and  _209
REMARK   74  A    between atoms: _209  and  _210
REMARK   75  A    between atoms: _213  and  _215
REMARK   76  A    between atoms: _215  and  _216
REMARK   77  A    between atoms: _215  and  _218
REMARK   78  A    between atoms: _220  and  _222
REMARK   79  A    between atoms: _222  and  _223
REMARK   80  A    between atoms: _222  and  _225
REMARK   81  A    between atoms: _225  and  _226
REMARK   82  A    between atoms: _229  and  _231
REMARK   83  A    between atoms: _231  and  _232
REMARK   84  A    between atoms: _231  and  _234
REMARK   85  A    between atoms: _234  and  _235
REMARK   86  A    between atoms: _238  and  _240
REMARK   87  A    between atoms: _240  and  _241
REMARK   88  A    between atoms: _240  and  _243
REMARK   89  A    between atoms: _243  and  _244
REMARK                            x       y       z     vdW  Elec       q    Type
REMARK                         _______ _______ _______ _____ _____    ______ ____
ROOT
ATOM      1  O   HOH     1      92.434  84.546 -48.424  0.00  0.00    +0.000 OA
ENDROOT
TORSDOF 0
REMARK  Name = ../refined-set-2016/4agl/4agl_pocket.pdb
REMARK  89 active torsions:
REMARK  status: ('A' for Active; 'I' for Inactive)
REMARK    1  A    between atoms: _1  and  _3
REMARK    2  A    between atoms: _3  and  _4
REMARK    3  A    between atoms: _3  and  _6
REMARK    4  A    between atoms: _6  and  _7
REMARK    5  A    between atoms: _12  and  _13
REMARK    6  A    between atoms: _15  and  _17
REMARK    7  A    between atoms: _17  and  _18
REMARK    8  A    between atoms: _17  and  _20
REMARK    9  A    between atoms: _20  and  _21
REMARK   10  A    between atoms: _27  and  _29
REMARK   11  A    between atoms: _29  and  _30
REMARK   12  A    between atoms: _29  and  _32
REMARK   13  A    between atoms: _32  and  _33
REMARK   14  A    between atoms: _33  and  _34
REMARK   15  A    between atoms: _34  and  _35
REMARK   16  A    between atoms: _44  and  _46
REMARK   17  A    between atoms: _46  and  _47
REMARK   18  A    between atoms: _46  and  _49
REMARK   19  A    between atoms: _49  and  _50
REMARK   20  A    between atoms: _50  and  _51
REMARK   21  A    between atoms: _56  and  _58
REMARK   22  A    between atoms: _58  and  _59
REMARK   23  A    between atoms: _58  and  _61
REMARK   24  A    between atoms: _61  and  _62
REMARK   25  A    between atoms: _65  and  _67
REMARK   26  A    between atoms: _67  and  _68
REMARK   27  A    between atoms: _67  and  _70
REMARK   28  A    between atoms: _70  and  _71
REMARK   29  A    between atoms: _81  and  _83
REMARK   30  A    between atoms: _83  and  _84
REMARK   31  A    between atoms: _83  and  _86
REMARK   32  A    between atoms: _89  and  _91
REMARK   33  A    between atoms: _91  and  _92
REMARK   34  A    between atoms: _91  and  _94
REMARK   35  A    between atoms: _94  and  _95
REMARK   36  A    between atoms: _98  and  _100
REMARK   37  A    between atoms: _100  and  _101
REMARK   38  A    between atoms: _100  and  _103
REMARK   39  A    between atoms: _103  and  _104
REMARK   40  A    between atoms: _106  and  _108
REMARK   41  A    between atoms: _108  and  _109
REMARK   42  A    between atoms: _108  and  _111
REMARK   43  A    between atoms: _111  and  _112
REMARK   44  A    between atoms: _116  and  _117
REMARK   45  A    between atoms: _123  and  _124
REMARK   46  A    between atoms: _130  and  _131
REMARK   47  A    between atoms: _136  and  _138
REMARK   48  A    between atoms: _138  and  _139
REMARK   49  A    between atoms: _141  and  _143
REMARK   50  A    between atoms: _143  and  _144
REMARK   51  A    between atoms: _143  and  _146
REMARK   52  A    between atoms: _146  and  _147
REMARK   53  A    between atoms: _150  and  _152
REMARK   54  A    between atoms: _152  and  _153
REMARK   55  A    between atoms: _152  and  _155
REMARK   56  A    between atoms: _159  and  _160
REMARK   57  A    between atoms: _165  and  _167
REMARK   58  A    between atoms: _167  and  _168
REMARK   59  A    between atoms: _167  and  _170
REMARK   60  A    between atoms: _172  and  _174
REMARK   61  A    between atoms: _174  and  _175
REMARK   62  A    between atoms: _174  and  _177
REMARK   63  A    between atoms: _177  and  _178
REMARK   64  A    between atoms: _178  and  _179
REMARK   65  A    between atoms: _183  and  _184
REMARK   66  A    between atoms: _190  and  _191
REMARK   67  A    between atoms: _196  and  _198
REMARK   68  A    between atoms: _198  and  _199
REMARK   69  A    between atoms: _198  and  _201
REMARK   70  A    between atoms: _201  and  _202
REMARK   71  A    between atoms: _204  and  _206
REMARK   72  A    between atoms: _206  and  _207
REMARK   73  A    between atoms: _206  and  _209
REMARK   74  A    between atoms: _209  and  _210
REMARK   75  A    between atoms: _213  and  _215
REMARK   76  A    between atoms: _215  and  _216
REMARK   77  A    between atoms: _215  and  _218
REMARK   78  A    between atoms: _220  and  _222
REMARK   79  A    between atoms: _222  and  _223
REMARK   80  A    between atoms: _222  and  _225
REMARK   81  A    between atoms: _225  and  _226
REMARK   82  A    between atoms: _229  and  _231
REMARK   83  A    between atoms: _231  and  _232
REMARK   84  A    between atoms: _231  and  _234
REMARK   85  A    between atoms: _234  and  _235
REMARK   86  A    between atoms: _238  and  _240
REMARK   87  A    between atoms: _240  and  _241
REMARK   88  A    between atoms: _240  and  _243
REMARK   89  A    between atoms: _243  and  _244
REMARK                            x       y       z     vdW  Elec       q    Type
REMARK                         _______ _______ _______ _____ _____    ______ ____
ROOT
ATOM      1  O   HOH     1      87.016  97.337 -45.420  0.00  0.00    +0.000 OA
ENDROOT
TORSDOF 0
REMARK  Name = ../refined-set-2016/4agl/4agl_pocket.pdb
REMARK  89 active torsions:
REMARK  status: ('A' for Active; 'I' for Inactive)
REMARK    1  A    between atoms: _1  and  _3
REMARK    2  A    between atoms: _3  and  _4
REMARK    3  A    between atoms: _3  and  _6
REMARK    4  A    between atoms: _6  and  _7
REMARK    5  A    between atoms: _12  and  _13
REMARK    6  A    between atoms: _15  and  _17
REMARK    7  A    between atoms: _17  and  _18
REMARK    8  A    between atoms: _17  and  _20
REMARK    9  A    between atoms: _20  and  _21
REMARK   10  A    between atoms: _27  and  _29
REMARK   11  A    between atoms: _29  and  _30
REMARK   12  A    between atoms: _29  and  _32
REMARK   13  A    between atoms: _32  and  _33
REMARK   14  A    between atoms: _33  and  _34
REMARK   15  A    between atoms: _34  and  _35
REMARK   16  A    between atoms: _44  and  _46
REMARK   17  A    between atoms: _46  and  _47
REMARK   18  A    between atoms: _46  and  _49
REMARK   19  A    between atoms: _49  and  _50
REMARK   20  A    between atoms: _50  and  _51
REMARK   21  A    between atoms: _56  and  _58
REMARK   22  A    between atoms: _58  and  _59
REMARK   23  A    between atoms: _58  and  _61
REMARK   24  A    between atoms: _61  and  _62
REMARK   25  A    between atoms: _65  and  _67
REMARK   26  A    between atoms: _67  and  _68
REMARK   27  A    between atoms: _67  and  _70
REMARK   28  A    between atoms: _70  and  _71
REMARK   29  A    between atoms: _81  and  _83
REMARK   30  A    between atoms: _83  and  _84
REMARK   31  A    between atoms: _83  and  _86
REMARK   32  A    between atoms: _89  and  _91
REMARK   33  A    between atoms: _91  and  _92
REMARK   34  A    between atoms: _91  and  _94
REMARK   35  A    between atoms: _94  and  _95
REMARK   36  A    between atoms: _98  and  _100
REMARK   37  A    between atoms: _100  and  _101
REMARK   38  A    between atoms: _100  and  _103
REMARK   39  A    between atoms: _103  and  _104
REMARK   40  A    between atoms: _106  and  _108
REMARK   41  A    between atoms: _108  and  _109
REMARK   42  A    between atoms: _108  and  _111
REMARK   43  A    between atoms: _111  and  _112
REMARK   44  A    between atoms: _116  and  _117
REMARK   45  A    between atoms: _123  and  _124
REMARK   46  A    between atoms: _130  and  _131
REMARK   47  A    between atoms: _136  and  _138
REMARK   48  A    between atoms: _138  and  _139
REMARK   49  A    between atoms: _141  and  _143
REMARK   50  A    between atoms: _143  and  _144
REMARK   51  A    between atoms: _143  and  _146
REMARK   52  A    between atoms: _146  and  _147
REMARK   53  A    between atoms: _150  and  _152
REMARK   54  A    between atoms: _152  and  _153
REMARK   55  A    between atoms: _152  and  _155
REMARK   56  A    between atoms: _159  and  _160
REMARK   57  A    between atoms: _165  and  _167
REMARK   58  A    between atoms: _167  and  _168
REMARK   59  A    between atoms: _167  and  _170
REMARK   60  A    between atoms: _172  and  _174
REMARK   61  A    between atoms: _174  and  _175
REMARK   62  A    between atoms: _174  and  _177
REMARK   63  A    between atoms: _177  and  _178
REMARK   64  A    between atoms: _178  and  _179
REMARK   65  A    between atoms: _183  and  _184
REMARK   66  A    between atoms: _190  and  _191
REMARK   67  A    between atoms: _196  and  _198
REMARK   68  A    between atoms: _198  and  _199
REMARK   69  A    between atoms: _198  and  _201
REMARK   70  A    between atoms: _201  and  _202
REMARK   71  A    between atoms: _204  and  _206
REMARK   72  A    between atoms: _206  and  _207
REMARK   73  A    between atoms: _206  and  _209
REMARK   74  A    between atoms: _209  and  _210
REMARK   75  A    between atoms: _213  and  _215
REMARK   76  A    between atoms: _215  and  _216
REMARK   77  A    between atoms: _215  and  _218
REMARK   78  A    between atoms: _220  and  _222
REMARK   79  A    between atoms: _222  and  _223
REMARK   80  A    between atoms: _222  and  _225
REMARK   81  A    between atoms: _225  and  _226
REMARK   82  A    between atoms: _229  and  _231
REMARK   83  A    between atoms: _231  and  _232
REMARK   84  A    between atoms: _231  and  _234
REMARK   85  A    between atoms: _234  and  _235
REMARK   86  A    between atoms: _238  and  _240
REMARK   87  A    between atoms: _240  and  _241
REMARK   88  A    between atoms: _240  and  _243
REMARK   89  A    between atoms: _243  and  _244
REMARK                            x       y       z     vdW  Elec       q    Type
REMARK                         _______ _______ _______ _____ _____    ______ ____
ROOT
ATOM      1  O   HOH     1      90.744  87.187 -41.087  0.00  0.00    +0.000 OA
ENDROOT
TORSDOF 0
REMARK  Name = ../refined-set-2016/4agl/4agl_pocket.pdb
REMARK  89 active torsions:
REMARK  status: ('A' for Active; 'I' for Inactive)
REMARK    1  A    between atoms: _1  and  _3
REMARK    2  A    between atoms: _3  and  _4
REMARK    3  A    between atoms: _3  and  _6
REMARK    4  A    between atoms: _6  and  _7
REMARK    5  A    between atoms: _12  and  _13
REMARK    6  A    between atoms: _15  and  _17
REMARK    7  A    between atoms: _17  and  _18
REMARK    8  A    between atoms: _17  and  _20
REMARK    9  A    between atoms: _20  and  _21
REMARK   10  A    between atoms: _27  and  _29
REMARK   11  A    between atoms: _29  and  _30
REMARK   12  A    between atoms: _29  and  _32
REMARK   13  A    between atoms: _32  and  _33
REMARK   14  A    between atoms: _33  and  _34
REMARK   15  A    between atoms: _34  and  _35
REMARK   16  A    between atoms: _44  and  _46
REMARK   17  A    between atoms: _46  and  _47
REMARK   18  A    between atoms: _46  and  _49
REMARK   19  A    between atoms: _49  and  _50
REMARK   20  A    between atoms: _50  and  _51
REMARK   21  A    between atoms: _56  and  _58
REMARK   22  A    between atoms: _58  and  _59
REMARK   23  A    between atoms: _58  and  _61
REMARK   24  A    between atoms: _61  and  _62
REMARK   25  A    between atoms: _65  and  _67
REMARK   26  A    between atoms: _67  and  _68
REMARK   27  A    between atoms: _67  and  _70
REMARK   28  A    between atoms: _70  and  _71
REMARK   29  A    between atoms: _81  and  _83
REMARK   30  A    between atoms: _83  and  _84
REMARK   31  A    between atoms: _83  and  _86
REMARK   32  A    between atoms: _89  and  _91
REMARK   33  A    between atoms: _91  and  _92
REMARK   34  A    between atoms: _91  and  _94
REMARK   35  A    between atoms: _94  and  _95
REMARK   36  A    between atoms: _98  and  _100
REMARK   37  A    between atoms: _100  and  _101
REMARK   38  A    between atoms: _100  and  _103
REMARK   39  A    between atoms: _103  and  _104
REMARK   40  A    between atoms: _106  and  _108
REMARK   41  A    between atoms: _108  and  _109
REMARK   42  A    between atoms: _108  and  _111
REMARK   43  A    between atoms: _111  and  _112
REMARK   44  A    between atoms: _116  and  _117
REMARK   45  A    between atoms: _123  and  _124
REMARK   46  A    between atoms: _130  and  _131
REMARK   47  A    between atoms: _136  and  _138
REMARK   48  A    between atoms: _138  and  _139
REMARK   49  A    between atoms: _141  and  _143
REMARK   50  A    between atoms: _143  and  _144
REMARK   51  A    between atoms: _143  and  _146
REMARK   52  A    between atoms: _146  and  _147
REMARK   53  A    between atoms: _150  and  _152
REMARK   54  A    between atoms: _152  and  _153
REMARK   55  A    between atoms: _152  and  _155
REMARK   56  A    between atoms: _159  and  _160
REMARK   57  A    between atoms: _165  and  _167
REMARK   58  A    between atoms: _167  and  _168
REMARK   59  A    between atoms: _167  and  _170
REMARK   60  A    between atoms: _172  and  _174
REMARK   61  A    between atoms: _174  and  _175
REMARK   62  A    between atoms: _174  and  _177
REMARK   63  A    between atoms: _177  and  _178
REMARK   64  A    between atoms: _178  and  _179
REMARK   65  A    between atoms: _183  and  _184
REMARK   66  A    between atoms: _190  and  _191
REMARK   67  A    between atoms: _196  and  _198
REMARK   68  A    between atoms: _198  and  _199
REMARK   69  A    between atoms: _198  and  _201
REMARK   70  A    between atoms: _201  and  _202
REMARK   71  A    between atoms: _204  and  _206
REMARK   72  A    between atoms: _206  and  _207
REMARK   73  A    between atoms: _206  and  _209
REMARK   74  A    between atoms: _209  and  _210
REMARK   75  A    between atoms: _213  and  _215
REMARK   76  A    between atoms: _215  and  _216
REMARK   77  A    between atoms: _215  and  _218
REMARK   78  A    between atoms: _220  and  _222
REMARK   79  A    between atoms: _222  and  _223
REMARK   80  A    between atoms: _222  and  _225
REMARK   81  A    between atoms: _225  and  _226
REMARK   82  A    between atoms: _229  and  _231
REMARK   83  A    between atoms: _231  and  _232
REMARK   84  A    between atoms: _231  and  _234
REMARK   85  A    between atoms: _234  and  _235
REMARK   86  A    between atoms: _238  and  _240
REMARK   87  A    between atoms: _240  and  _241
REMARK   88  A    between atoms: _240  and  _243
REMARK   89  A    between atoms: _243  and  _244
REMARK                            x       y       z     vdW  Elec       q    Type
REMARK                         _______ _______ _______ _____ _____    ______ ____
ROOT
ATOM      1  O   HOH     1      89.514  86.664 -47.951  0.00  0.00    +0.000 OA
ENDROOT
TORSDOF 0
REMARK  Name = ../refined-set-2016/4agl/4agl_pocket.pdb
REMARK  89 active torsions:
REMARK  status: ('A' for Active; 'I' for Inactive)
REMARK    1  A    between atoms: _1  and  _3
REMARK    2  A    between atoms: _3  and  _4
REMARK    3  A    between atoms: _3  and  _6
REMARK    4  A    between atoms: _6  and  _7
REMARK    5  A    between atoms: _12  and  _13
REMARK    6  A    between atoms: _15  and  _17
REMARK    7  A    between atoms: _17  and  _18
REMARK    8  A    between atoms: _17  and  _20
REMARK    9  A    between atoms: _20  and  _21
REMARK   10  A    between atoms: _27  and  _29
REMARK   11  A    between atoms: _29  and  _30
REMARK   12  A    between atoms: _29  and  _32
REMARK   13  A    between atoms: _32  and  _33
REMARK   14  A    between atoms: _33  and  _34
REMARK   15  A    between atoms: _34  and  _35
REMARK   16  A    between atoms: _44  and  _46
REMARK   17  A    between atoms: _46  and  _47
REMARK   18  A    between atoms: _46  and  _49
REMARK   19  A    between atoms: _49  and  _50
REMARK   20  A    between atoms: _50  and  _51
REMARK   21  A    between atoms: _56  and  _58
REMARK   22  A    between atoms: _58  and  _59
REMARK   23  A    between atoms: _58  and  _61
REMARK   24  A    between atoms: _61  and  _62
REMARK   25  A    between atoms: _65  and  _67
REMARK   26  A    between atoms: _67  and  _68
REMARK   27  A    between atoms: _67  and  _70
REMARK   28  A    between atoms: _70  and  _71
REMARK   29  A    between atoms: _81  and  _83
REMARK   30  A    between atoms: _83  and  _84
REMARK   31  A    between atoms: _83  and  _86
REMARK   32  A    between atoms: _89  and  _91
REMARK   33  A    between atoms: _91  and  _92
REMARK   34  A    between atoms: _91  and  _94
REMARK   35  A    between atoms: _94  and  _95
REMARK   36  A    between atoms: _98  and  _100
REMARK   37  A    between atoms: _100  and  _101
REMARK   38  A    between atoms: _100  and  _103
REMARK   39  A    between atoms: _103  and  _104
REMARK   40  A    between atoms: _106  and  _108
REMARK   41  A    between atoms: _108  and  _109
REMARK   42  A    between atoms: _108  and  _111
REMARK   43  A    between atoms: _111  and  _112
REMARK   44  A    between atoms: _116  and  _117
REMARK   45  A    between atoms: _123  and  _124
REMARK   46  A    between atoms: _130  and  _131
REMARK   47  A    between atoms: _136  and  _138
REMARK   48  A    between atoms: _138  and  _139
REMARK   49  A    between atoms: _141  and  _143
REMARK   50  A    between atoms: _143  and  _144
REMARK   51  A    between atoms: _143  and  _146
REMARK   52  A    between atoms: _146  and  _147
REMARK   53  A    between atoms: _150  and  _152
REMARK   54  A    between atoms: _152  and  _153
REMARK   55  A    between atoms: _152  and  _155
REMARK   56  A    between atoms: _159  and  _160
REMARK   57  A    between atoms: _165  and  _167
REMARK   58  A    between atoms: _167  and  _168
REMARK   59  A    between atoms: _167  and  _170
REMARK   60  A    between atoms: _172  and  _174
REMARK   61  A    between atoms: _174  and  _175
REMARK   62  A    between atoms: _174  and  _177
REMARK   63  A    between atoms: _177  and  _178
REMARK   64  A    between atoms: _178  and  _179
REMARK   65  A    between atoms: _183  and  _184
REMARK   66  A    between atoms: _190  and  _191
REMARK   67  A    between atoms: _196  and  _198
REMARK   68  A    between atoms: _198  and  _199
REMARK   69  A    between atoms: _198  and  _201
REMARK   70  A    between atoms: _201  and  _202
REMARK   71  A    between atoms: _204  and  _206
REMARK   72  A    between atoms: _206  and  _207
REMARK   73  A    between atoms: _206  and  _209
REMARK   74  A    between atoms: _209  and  _210
REMARK   75  A    between atoms: _213  and  _215
REMARK   76  A    between atoms: _215  and  _216
REMARK   77  A    between atoms: _215  and  _218
REMARK   78  A    between atoms: _220  and  _222
REMARK   79  A    between atoms: _222  and  _223
REMARK   80  A    between atoms: _222  and  _225
REMARK   81  A    between atoms: _225  and  _226
REMARK   82  A    between atoms: _229  and  _231
REMARK   83  A    between atoms: _231  and  _232
REMARK   84  A    between atoms: _231  and  _234
REMARK   85  A    between atoms: _234  and  _235
REMARK   86  A    between atoms: _238  and  _240
REMARK   87  A    between atoms: _240  and  _241
REMARK   88  A    between atoms: _240  and  _243
REMARK   89  A    between atoms: _243  and  _244
REMARK                            x       y       z     vdW  Elec       q    Type
REMARK                         _______ _______ _______ _____ _____    ______ ____
ROOT
ATOM      1  O   HOH     1      92.631  89.759 -41.579  0.00  0.00    +0.000 OA
ENDROOT
TORSDOF 0
REMARK  Name = ../refined-set-2016/4agl/4agl_pocket.pdb
REMARK  89 active torsions:
REMARK  status: ('A' for Active; 'I' for Inactive)
REMARK    1  A    between atoms: _1  and  _3
REMARK    2  A    between atoms: _3  and  _4
REMARK    3  A    between atoms: _3  and  _6
REMARK    4  A    between atoms: _6  and  _7
REMARK    5  A    between atoms: _12  and  _13
REMARK    6  A    between atoms: _15  and  _17
REMARK    7  A    between atoms: _17  and  _18
REMARK    8  A    between atoms: _17  and  _20
REMARK    9  A    between atoms: _20  and  _21
REMARK   10  A    between atoms: _27  and  _29
REMARK   11  A    between atoms: _29  and  _30
REMARK   12  A    between atoms: _29  and  _32
REMARK   13  A    between atoms: _32  and  _33
REMARK   14  A    between atoms: _33  and  _34
REMARK   15  A    between atoms: _34  and  _35
REMARK   16  A    between atoms: _44  and  _46
REMARK   17  A    between atoms: _46  and  _47
REMARK   18  A    between atoms: _46  and  _49
REMARK   19  A    between atoms: _49  and  _50
REMARK   20  A    between atoms: _50  and  _51
REMARK   21  A    between atoms: _56  and  _58
REMARK   22  A    between atoms: _58  and  _59
REMARK   23  A    between atoms: _58  and  _61
REMARK   24  A    between atoms: _61  and  _62
REMARK   25  A    between atoms: _65  and  _67
REMARK   26  A    between atoms: _67  and  _68
REMARK   27  A    between atoms: _67  and  _70
REMARK   28  A    between atoms: _70  and  _71
REMARK   29  A    between atoms: _81  and  _83
REMARK   30  A    between atoms: _83  and  _84
REMARK   31  A    between atoms: _83  and  _86
REMARK   32  A    between atoms: _89  and  _91
REMARK   33  A    between atoms: _91  and  _92
REMARK   34  A    between atoms: _91  and  _94
REMARK   35  A    between atoms: _94  and  _95
REMARK   36  A    between atoms: _98  and  _100
REMARK   37  A    between atoms: _100  and  _101
REMARK   38  A    between atoms: _100  and  _103
REMARK   39  A    between atoms: _103  and  _104
REMARK   40  A    between atoms: _106  and  _108
REMARK   41  A    between atoms: _108  and  _109
REMARK   42  A    between atoms: _108  and  _111
REMARK   43  A    between atoms: _111  and  _112
REMARK   44  A    between atoms: _116  and  _117
REMARK   45  A    between atoms: _123  and  _124
REMARK   46  A    between atoms: _130  and  _131
REMARK   47  A    between atoms: _136  and  _138
REMARK   48  A    between atoms: _138  and  _139
REMARK   49  A    between atoms: _141  and  _143
REMARK   50  A    between atoms: _143  and  _144
REMARK   51  A    between atoms: _143  and  _146
REMARK   52  A    between atoms: _146  and  _147
REMARK   53  A    between atoms: _150  and  _152
REMARK   54  A    between atoms: _152  and  _153
REMARK   55  A    between atoms: _152  and  _155
REMARK   56  A    between atoms: _159  and  _160
REMARK   57  A    between atoms: _165  and  _167
REMARK   58  A    between atoms: _167  and  _168
REMARK   59  A    between atoms: _167  and  _170
REMARK   60  A    between atoms: _172  and  _174
REMARK   61  A    between atoms: _174  and  _175
REMARK   62  A    between atoms: _174  and  _177
REMARK   63  A    between atoms: _177  and  _178
REMARK   64  A    between atoms: _178  and  _179
REMARK   65  A    between atoms: _183  and  _184
REMARK   66  A    between atoms: _190  and  _191
REMARK   67  A    between atoms: _196  and  _198
REMARK   68  A    between atoms: _198  and  _199
REMARK   69  A    between atoms: _198  and  _201
REMARK   70  A    between atoms: _201  and  _202
REMARK   71  A    between atoms: _204  and  _206
REMARK   72  A    between atoms: _206  and  _207
REMARK   73  A    between atoms: _206  and  _209
REMARK   74  A    between atoms: _209  and  _210
REMARK   75  A    between atoms: _213  and  _215
REMARK   76  A    between atoms: _215  and  _216
REMARK   77  A    between atoms: _215  and  _218
REMARK   78  A    between atoms: _220  and  _222
REMARK   79  A    between atoms: _222  and  _223
REMARK   80  A    between atoms: _222  and  _225
REMARK   81  A    between atoms: _225  and  _226
REMARK   82  A    between atoms: _229  and  _231
REMARK   83  A    between atoms: _231  and  _232
REMARK   84  A    between atoms: _231  and  _234
REMARK   85  A    between atoms: _234  and  _235
REMARK   86  A    between atoms: _238  and  _240
REMARK   87  A    between atoms: _240  and  _241
REMARK   88  A    between atoms: _240  and  _243
REMARK   89  A    between atoms: _243  and  _244
REMARK                            x       y       z     vdW  Elec       q    Type
REMARK                         _______ _______ _______ _____ _____    ______ ____
ROOT
ATOM      1  O   HOH     1      85.488  90.232 -40.655  0.00  0.00    +0.000 OA
ENDROOT
TORSDOF 0
REMARK  Name = ../refined-set-2016/4agl/4agl_pocket.pdb
REMARK  89 active torsions:
REMARK  status: ('A' for Active; 'I' for Inactive)
REMARK    1  A    between atoms: _1  and  _3
REMARK    2  A    between atoms: _3  and  _4
REMARK    3  A    between atoms: _3  and  _6
REMARK    4  A    between atoms: _6  and  _7
REMARK    5  A    between atoms: _12  and  _13
REMARK    6  A    between atoms: _15  and  _17
REMARK    7  A    between atoms: _17  and  _18
REMARK    8  A    between atoms: _17  and  _20
REMARK    9  A    between atoms: _20  and  _21
REMARK   10  A    between atoms: _27  and  _29
REMARK   11  A    between atoms: _29  and  _30
REMARK   12  A    between atoms: _29  and  _32
REMARK   13  A    between atoms: _32  and  _33
REMARK   14  A    between atoms: _33  and  _34
REMARK   15  A    between atoms: _34  and  _35
REMARK   16  A    between atoms: _44  and  _46
REMARK   17  A    between atoms: _46  and  _47
REMARK   18  A    between atoms: _46  and  _49
REMARK   19  A    between atoms: _49  and  _50
REMARK   20  A    between atoms: _50  and  _51
REMARK   21  A    between atoms: _56  and  _58
REMARK   22  A    between atoms: _58  and  _59
REMARK   23  A    between atoms: _58  and  _61
REMARK   24  A    between atoms: _61  and  _62
REMARK   25  A    between atoms: _65  and  _67
REMARK   26  A    between atoms: _67  and  _68
REMARK   27  A    between atoms: _67  and  _70
REMARK   28  A    between atoms: _70  and  _71
REMARK   29  A    between atoms: _81  and  _83
REMARK   30  A    between atoms: _83  and  _84
REMARK   31  A    between atoms: _83  and  _86
REMARK   32  A    between atoms: _89  and  _91
REMARK   33  A    between atoms: _91  and  _92
REMARK   34  A    between atoms: _91  and  _94
REMARK   35  A    between atoms: _94  and  _95
REMARK   36  A    between atoms: _98  and  _100
REMARK   37  A    between atoms: _100  and  _101
REMARK   38  A    between atoms: _100  and  _103
REMARK   39  A    between atoms: _103  and  _104
REMARK   40  A    between atoms: _106  and  _108
REMARK   41  A    between atoms: _108  and  _109
REMARK   42  A    between atoms: _108  and  _111
REMARK   43  A    between atoms: _111  and  _112
REMARK   44  A    between atoms: _116  and  _117
REMARK   45  A    between atoms: _123  and  _124
REMARK   46  A    between atoms: _130  and  _131
REMARK   47  A    between atoms: _136  and  _138
REMARK   48  A    between atoms: _138  and  _139
REMARK   49  A    between atoms: _141  and  _143
REMARK   50  A    between atoms: _143  and  _144
REMARK   51  A    between atoms: _143  and  _146
REMARK   52  A    between atoms: _146  and  _147
REMARK   53  A    between atoms: _150  and  _152
REMARK   54  A    between atoms: _152  and  _153
REMARK   55  A    between atoms: _152  and  _155
REMARK   56  A    between atoms: _159  and  _160
REMARK   57  A    between atoms: _165  and  _167
REMARK   58  A    between atoms: _167  and  _168
REMARK   59  A    between atoms: _167  and  _170
REMARK   60  A    between atoms: _172  and  _174
REMARK   61  A    between atoms: _174  and  _175
REMARK   62  A    between atoms: _174  and  _177
REMARK   63  A    between atoms: _177  and  _178
REMARK   64  A    between atoms: _178  and  _179
REMARK   65  A    between atoms: _183  and  _184
REMARK   66  A    between atoms: _190  and  _191
REMARK   67  A    between atoms: _196  and  _198
REMARK   68  A    between atoms: _198  and  _199
REMARK   69  A    between atoms: _198  and  _201
REMARK   70  A    between atoms: _201  and  _202
REMARK   71  A    between atoms: _204  and  _206
REMARK   72  A    between atoms: _206  and  _207
REMARK   73  A    between atoms: _206  and  _209
REMARK   74  A    between atoms: _209  and  _210
REMARK   75  A    between atoms: _213  and  _215
REMARK   76  A    between atoms: _215  and  _216
REMARK   77  A    between atoms: _215  and  _218
REMARK   78  A    between atoms: _220  and  _222
REMARK   79  A    between atoms: _222  and  _223
REMARK   80  A    between atoms: _222  and  _225
REMARK   81  A    between atoms: _225  and  _226
REMARK   82  A    between atoms: _229  and  _231
REMARK   83  A    between atoms: _231  and  _232
REMARK   84  A    between atoms: _231  and  _234
REMARK   85  A    between atoms: _234  and  _235
REMARK   86  A    between atoms: _238  and  _240
REMARK   87  A    between atoms: _240  and  _241
REMARK   88  A    between atoms: _240  and  _243
REMARK   89  A    between atoms: _243  and  _244
REMARK                            x       y       z     vdW  Elec       q    Type
REMARK                         _______ _______ _______ _____ _____    ______ ____
ROOT
ATOM      1  O   HOH     1      84.722  90.236 -44.278  0.00  0.00    +0.000 OA
ENDROOT
TORSDOF 0
REMARK  Name = ../refined-set-2016/4agl/4agl_pocket.pdb
REMARK  89 active torsions:
REMARK  status: ('A' for Active; 'I' for Inactive)
REMARK    1  A    between atoms: _1  and  _3
REMARK    2  A    between atoms: _3  and  _4
REMARK    3  A    between atoms: _3  and  _6
REMARK    4  A    between atoms: _6  and  _7
REMARK    5  A    between atoms: _12  and  _13
REMARK    6  A    between atoms: _15  and  _17
REMARK    7  A    between atoms: _17  and  _18
REMARK    8  A    between atoms: _17  and  _20
REMARK    9  A    between atoms: _20  and  _21
REMARK   10  A    between atoms: _27  and  _29
REMARK   11  A    between atoms: _29  and  _30
REMARK   12  A    between atoms: _29  and  _32
REMARK   13  A    between atoms: _32  and  _33
REMARK   14  A    between atoms: _33  and  _34
REMARK   15  A    between atoms: _34  and  _35
REMARK   16  A    between atoms: _44  and  _46
REMARK   17  A    between atoms: _46  and  _47
REMARK   18  A    between atoms: _46  and  _49
REMARK   19  A    between atoms: _49  and  _50
REMARK   20  A    between atoms: _50  and  _51
REMARK   21  A    between atoms: _56  and  _58
REMARK   22  A    between atoms: _58  and  _59
REMARK   23  A    between atoms: _58  and  _61
REMARK   24  A    between atoms: _61  and  _62
REMARK   25  A    between atoms: _65  and  _67
REMARK   26  A    between atoms: _67  and  _68
REMARK   27  A    between atoms: _67  and  _70
REMARK   28  A    between atoms: _70  and  _71
REMARK   29  A    between atoms: _81  and  _83
REMARK   30  A    between atoms: _83  and  _84
REMARK   31  A    between atoms: _83  and  _86
REMARK   32  A    between atoms: _89  and  _91
REMARK   33  A    between atoms: _91  and  _92
REMARK   34  A    between atoms: _91  and  _94
REMARK   35  A    between atoms: _94  and  _95
REMARK   36  A    between atoms: _98  and  _100
REMARK   37  A    between atoms: _100  and  _101
REMARK   38  A    between atoms: _100  and  _103
REMARK   39  A    between atoms: _103  and  _104
REMARK   40  A    between atoms: _106  and  _108
REMARK   41  A    between atoms: _108  and  _109
REMARK   42  A    between atoms: _108  and  _111
REMARK   43  A    between atoms: _111  and  _112
REMARK   44  A    between atoms: _116  and  _117
REMARK   45  A    between atoms: _123  and  _124
REMARK   46  A    between atoms: _130  and  _131
REMARK   47  A    between atoms: _136  and  _138
REMARK   48  A    between atoms: _138  and  _139
REMARK   49  A    between atoms: _141  and  _143
REMARK   50  A    between atoms: _143  and  _144
REMARK   51  A    between atoms: _143  and  _146
REMARK   52  A    between atoms: _146  and  _147
REMARK   53  A    between atoms: _150  and  _152
REMARK   54  A    between atoms: _152  and  _153
REMARK   55  A    between atoms: _152  and  _155
REMARK   56  A    between atoms: _159  and  _160
REMARK   57  A    between atoms: _165  and  _167
REMARK   58  A    between atoms: _167  and  _168
REMARK   59  A    between atoms: _167  and  _170
REMARK   60  A    between atoms: _172  and  _174
REMARK   61  A    between atoms: _174  and  _175
REMARK   62  A    between atoms: _174  and  _177
REMARK   63  A    between atoms: _177  and  _178
REMARK   64  A    between atoms: _178  and  _179
REMARK   65  A    between atoms: _183  and  _184
REMARK   66  A    between atoms: _190  and  _191
REMARK   67  A    between atoms: _196  and  _198
REMARK   68  A    between atoms: _198  and  _199
REMARK   69  A    between atoms: _198  and  _201
REMARK   70  A    between atoms: _201  and  _202
REMARK   71  A    between atoms: _204  and  _206
REMARK   72  A    between atoms: _206  and  _207
REMARK   73  A    between atoms: _206  and  _209
REMARK   74  A    between atoms: _209  and  _210
REMARK   75  A    between atoms: _213  and  _215
REMARK   76  A    between atoms: _215  and  _216
REMARK   77  A    between atoms: _215  and  _218
REMARK   78  A    between atoms: _220  and  _222
REMARK   79  A    between atoms: _222  and  _223
REMARK   80  A    between atoms: _222  and  _225
REMARK   81  A    between atoms: _225  and  _226
REMARK   82  A    between atoms: _229  and  _231
REMARK   83  A    between atoms: _231  and  _232
REMARK   84  A    between atoms: _231  and  _234
REMARK   85  A    between atoms: _234  and  _235
REMARK   86  A    between atoms: _238  and  _240
REMARK   87  A    between atoms: _240  and  _241
REMARK   88  A    between atoms: _240  and  _243
REMARK   89  A    between atoms: _243  and  _244
REMARK                            x       y       z     vdW  Elec       q    Type
REMARK                         _______ _______ _______ _____ _____    ______ ____
ROOT
ATOM      1  O   HOH     1      84.958  96.323 -44.777  0.00  0.00    +0.000 OA
ENDROOT
TORSDOF 0
REMARK  Name = ../refined-set-2016/4agl/4agl_pocket.pdb
REMARK  89 active torsions:
REMARK  status: ('A' for Active; 'I' for Inactive)
REMARK    1  A    between atoms: _1  and  _3
REMARK    2  A    between atoms: _3  and  _4
REMARK    3  A    between atoms: _3  and  _6
REMARK    4  A    between atoms: _6  and  _7
REMARK    5  A    between atoms: _12  and  _13
REMARK    6  A    between atoms: _15  and  _17
REMARK    7  A    between atoms: _17  and  _18
REMARK    8  A    between atoms: _17  and  _20
REMARK    9  A    between atoms: _20  and  _21
REMARK   10  A    between atoms: _27  and  _29
REMARK   11  A    between atoms: _29  and  _30
REMARK   12  A    between atoms: _29  and  _32
REMARK   13  A    between atoms: _32  and  _33
REMARK   14  A    between atoms: _33  and  _34
REMARK   15  A    between atoms: _34  and  _35
REMARK   16  A    between atoms: _44  and  _46
REMARK   17  A    between atoms: _46  and  _47
REMARK   18  A    between atoms: _46  and  _49
REMARK   19  A    between atoms: _49  and  _50
REMARK   20  A    between atoms: _50  and  _51
REMARK   21  A    between atoms: _56  and  _58
REMARK   22  A    between atoms: _58  and  _59
REMARK   23  A    between atoms: _58  and  _61
REMARK   24  A    between atoms: _61  and  _62
REMARK   25  A    between atoms: _65  and  _67
REMARK   26  A    between atoms: _67  and  _68
REMARK   27  A    between atoms: _67  and  _70
REMARK   28  A    between atoms: _70  and  _71
REMARK   29  A    between atoms: _81  and  _83
REMARK   30  A    between atoms: _83  and  _84
REMARK   31  A    between atoms: _83  and  _86
REMARK   32  A    between atoms: _89  and  _91
REMARK   33  A    between atoms: _91  and  _92
REMARK   34  A    between atoms: _91  and  _94
REMARK   35  A    between atoms: _94  and  _95
REMARK   36  A    between atoms: _98  and  _100
REMARK   37  A    between atoms: _100  and  _101
REMARK   38  A    between atoms: _100  and  _103
REMARK   39  A    between atoms: _103  and  _104
REMARK   40  A    between atoms: _106  and  _108
REMARK   41  A    between atoms: _108  and  _109
REMARK   42  A    between atoms: _108  and  _111
REMARK   43  A    between atoms: _111  and  _112
REMARK   44  A    between atoms: _116  and  _117
REMARK   45  A    between atoms: _123  and  _124
REMARK   46  A    between atoms: _130  and  _131
REMARK   47  A    between atoms: _136  and  _138
REMARK   48  A    between atoms: _138  and  _139
REMARK   49  A    between atoms: _141  and  _143
REMARK   50  A    between atoms: _143  and  _144
REMARK   51  A    between atoms: _143  and  _146
REMARK   52  A    between atoms: _146  and  _147
REMARK   53  A    between atoms: _150  and  _152
REMARK   54  A    between atoms: _152  and  _153
REMARK   55  A    between atoms: _152  and  _155
REMARK   56  A    between atoms: _159  and  _160
REMARK   57  A    between atoms: _165  and  _167
REMARK   58  A    between atoms: _167  and  _168
REMARK   59  A    between atoms: _167  and  _170
REMARK   60  A    between atoms: _172  and  _174
REMARK   61  A    between atoms: _174  and  _175
REMARK   62  A    between atoms: _174  and  _177
REMARK   63  A    between atoms: _177  and  _178
REMARK   64  A    between atoms: _178  and  _179
REMARK   65  A    between atoms: _183  and  _184
REMARK   66  A    between atoms: _190  and  _191
REMARK   67  A    between atoms: _196  and  _198
REMARK   68  A    between atoms: _198  and  _199
REMARK   69  A    between atoms: _198  and  _201
REMARK   70  A    between atoms: _201  and  _202
REMARK   71  A    between atoms: _204  and  _206
REMARK   72  A    between atoms: _206  and  _207
REMARK   73  A    between atoms: _206  and  _209
REMARK   74  A    between atoms: _209  and  _210
REMARK   75  A    between atoms: _213  and  _215
REMARK   76  A    between atoms: _215  and  _216
REMARK   77  A    between atoms: _215  and  _218
REMARK   78  A    between atoms: _220  and  _222
REMARK   79  A    between atoms: _222  and  _223
REMARK   80  A    between atoms: _222  and  _225
REMARK   81  A    between atoms: _225  and  _226
REMARK   82  A    between atoms: _229  and  _231
REMARK   83  A    between atoms: _231  and  _232
REMARK   84  A    between atoms: _231  and  _234
REMARK   85  A    between atoms: _234  and  _235
REMARK   86  A    between atoms: _238  and  _240
REMARK   87  A    between atoms: _240  and  _241
REMARK   88  A    between atoms: _240  and  _243
REMARK   89  A    between atoms: _243  and  _244
REMARK                            x       y       z     vdW  Elec       q    Type
REMARK                         _______ _______ _______ _____ _____    ______ ____
ROOT
ATOM      1  O   HOH     1      85.158  93.493 -38.367  0.00  0.00    +0.000 OA
ENDROOT
TORSDOF 0
REMARK  Name = ../refined-set-2016/4agl/4agl_pocket.pdb
REMARK  89 active torsions:
REMARK  status: ('A' for Active; 'I' for Inactive)
REMARK    1  A    between atoms: _1  and  _3
REMARK    2  A    between atoms: _3  and  _4
REMARK    3  A    between atoms: _3  and  _6
REMARK    4  A    between atoms: _6  and  _7
REMARK    5  A    between atoms: _12  and  _13
REMARK    6  A    between atoms: _15  and  _17
REMARK    7  A    between atoms: _17  and  _18
REMARK    8  A    between atoms: _17  and  _20
REMARK    9  A    between atoms: _20  and  _21
REMARK   10  A    between atoms: _27  and  _29
REMARK   11  A    between atoms: _29  and  _30
REMARK   12  A    between atoms: _29  and  _32
REMARK   13  A    between atoms: _32  and  _33
REMARK   14  A    between atoms: _33  and  _34
REMARK   15  A    between atoms: _34  and  _35
REMARK   16  A    between atoms: _44  and  _46
REMARK   17  A    between atoms: _46  and  _47
REMARK   18  A    between atoms: _46  and  _49
REMARK   19  A    between atoms: _49  and  _50
REMARK   20  A    between atoms: _50  and  _51
REMARK   21  A    between atoms: _56  and  _58
REMARK   22  A    between atoms: _58  and  _59
REMARK   23  A    between atoms: _58  and  _61
REMARK   24  A    between atoms: _61  and  _62
REMARK   25  A    between atoms: _65  and  _67
REMARK   26  A    between atoms: _67  and  _68
REMARK   27  A    between atoms: _67  and  _70
REMARK   28  A    between atoms: _70  and  _71
REMARK   29  A    between atoms: _81  and  _83
REMARK   30  A    between atoms: _83  and  _84
REMARK   31  A    between atoms: _83  and  _86
REMARK   32  A    between atoms: _89  and  _91
REMARK   33  A    between atoms: _91  and  _92
REMARK   34  A    between atoms: _91  and  _94
REMARK   35  A    between atoms: _94  and  _95
REMARK   36  A    between atoms: _98  and  _100
REMARK   37  A    between atoms: _100  and  _101
REMARK   38  A    between atoms: _100  and  _103
REMARK   39  A    between atoms: _103  and  _104
REMARK   40  A    between atoms: _106  and  _108
REMARK   41  A    between atoms: _108  and  _109
REMARK   42  A    between atoms: _108  and  _111
REMARK   43  A    between atoms: _111  and  _112
REMARK   44  A    between atoms: _116  and  _117
REMARK   45  A    between atoms: _123  and  _124
REMARK   46  A    between atoms: _130  and  _131
REMARK   47  A    between atoms: _136  and  _138
REMARK   48  A    between atoms: _138  and  _139
REMARK   49  A    between atoms: _141  and  _143
REMARK   50  A    between atoms: _143  and  _144
REMARK   51  A    between atoms: _143  and  _146
REMARK   52  A    between atoms: _146  and  _147
REMARK   53  A    between atoms: _150  and  _152
REMARK   54  A    between atoms: _152  and  _153
REMARK   55  A    between atoms: _152  and  _155
REMARK   56  A    between atoms: _159  and  _160
REMARK   57  A    between atoms: _165  and  _167
REMARK   58  A    between atoms: _167  and  _168
REMARK   59  A    between atoms: _167  and  _170
REMARK   60  A    between atoms: _172  and  _174
REMARK   61  A    between atoms: _174  and  _175
REMARK   62  A    between atoms: _174  and  _177
REMARK   63  A    between atoms: _177  and  _178
REMARK   64  A    between atoms: _178  and  _179
REMARK   65  A    between atoms: _183  and  _184
REMARK   66  A    between atoms: _190  and  _191
REMARK   67  A    between atoms: _196  and  _198
REMARK   68  A    between atoms: _198  and  _199
REMARK   69  A    between atoms: _198  and  _201
REMARK   70  A    between atoms: _201  and  _202
REMARK   71  A    between atoms: _204  and  _206
REMARK   72  A    between atoms: _206  and  _207
REMARK   73  A    between atoms: _206  and  _209
REMARK   74  A    between atoms: _209  and  _210
REMARK   75  A    between atoms: _213  and  _215
REMARK   76  A    between atoms: _215  and  _216
REMARK   77  A    between atoms: _215  and  _218
REMARK   78  A    between atoms: _220  and  _222
REMARK   79  A    between atoms: _222  and  _223
REMARK   80  A    between atoms: _222  and  _225
REMARK   81  A    between atoms: _225  and  _226
REMARK   82  A    between atoms: _229  and  _231
REMARK   83  A    between atoms: _231  and  _232
REMARK   84  A    between atoms: _231  and  _234
REMARK   85  A    between atoms: _234  and  _235
REMARK   86  A    between atoms: _238  and  _240
REMARK   87  A    between atoms: _240  and  _241
REMARK   88  A    between atoms: _240  and  _243
REMARK   89  A    between atoms: _243  and  _244
REMARK                            x       y       z     vdW  Elec       q    Type
REMARK                         _______ _______ _______ _____ _____    ______ ____
ROOT
ATOM      1  O   HOH     1      91.137 100.860 -40.487  0.00  0.00    +0.000 OA
ENDROOT
TORSDOF 0
REMARK  Name = ../refined-set-2016/4agl/4agl_pocket.pdb
REMARK  89 active torsions:
REMARK  status: ('A' for Active; 'I' for Inactive)
REMARK    1  A    between atoms: _1  and  _3
REMARK    2  A    between atoms: _3  and  _4
REMARK    3  A    between atoms: _3  and  _6
REMARK    4  A    between atoms: _6  and  _7
REMARK    5  A    between atoms: _12  and  _13
REMARK    6  A    between atoms: _15  and  _17
REMARK    7  A    between atoms: _17  and  _18
REMARK    8  A    between atoms: _17  and  _20
REMARK    9  A    between atoms: _20  and  _21
REMARK   10  A    between atoms: _27  and  _29
REMARK   11  A    between atoms: _29  and  _30
REMARK   12  A    between atoms: _29  and  _32
REMARK   13  A    between atoms: _32  and  _33
REMARK   14  A    between atoms: _33  and  _34
REMARK   15  A    between atoms: _34  and  _35
REMARK   16  A    between atoms: _44  and  _46
REMARK   17  A    between atoms: _46  and  _47
REMARK   18  A    between atoms: _46  and  _49
REMARK   19  A    between atoms: _49  and  _50
REMARK   20  A    between atoms: _50  and  _51
REMARK   21  A    between atoms: _56  and  _58
REMARK   22  A    between atoms: _58  and  _59
REMARK   23  A    between atoms: _58  and  _61
REMARK   24  A    between atoms: _61  and  _62
REMARK   25  A    between atoms: _65  and  _67
REMARK   26  A    between atoms: _67  and  _68
REMARK   27  A    between atoms: _67  and  _70
REMARK   28  A    between atoms: _70  and  _71
REMARK   29  A    between atoms: _81  and  _83
REMARK   30  A    between atoms: _83  and  _84
REMARK   31  A    between atoms: _83  and  _86
REMARK   32  A    between atoms: _89  and  _91
REMARK   33  A    between atoms: _91  and  _92
REMARK   34  A    between atoms: _91  and  _94
REMARK   35  A    between atoms: _94  and  _95
REMARK   36  A    between atoms: _98  and  _100
REMARK   37  A    between atoms: _100  and  _101
REMARK   38  A    between atoms: _100  and  _103
REMARK   39  A    between atoms: _103  and  _104
REMARK   40  A    between atoms: _106  and  _108
REMARK   41  A    between atoms: _108  and  _109
REMARK   42  A    between atoms: _108  and  _111
REMARK   43  A    between atoms: _111  and  _112
REMARK   44  A    between atoms: _116  and  _117
REMARK   45  A    between atoms: _123  and  _124
REMARK   46  A    between atoms: _130  and  _131
REMARK   47  A    between atoms: _136  and  _138
REMARK   48  A    between atoms: _138  and  _139
REMARK   49  A    between atoms: _141  and  _143
REMARK   50  A    between atoms: _143  and  _144
REMARK   51  A    between atoms: _143  and  _146
REMARK   52  A    between atoms: _146  and  _147
REMARK   53  A    between atoms: _150  and  _152
REMARK   54  A    between atoms: _152  and  _153
REMARK   55  A    between atoms: _152  and  _155
REMARK   56  A    between atoms: _159  and  _160
REMARK   57  A    between atoms: _165  and  _167
REMARK   58  A    between atoms: _167  and  _168
REMARK   59  A    between atoms: _167  and  _170
REMARK   60  A    between atoms: _172  and  _174
REMARK   61  A    between atoms: _174  and  _175
REMARK   62  A    between atoms: _174  and  _177
REMARK   63  A    between atoms: _177  and  _178
REMARK   64  A    between atoms: _178  and  _179
REMARK   65  A    between atoms: _183  and  _184
REMARK   66  A    between atoms: _190  and  _191
REMARK   67  A    between atoms: _196  and  _198
REMARK   68  A    between atoms: _198  and  _199
REMARK   69  A    between atoms: _198  and  _201
REMARK   70  A    between atoms: _201  and  _202
REMARK   71  A    between atoms: _204  and  _206
REMARK   72  A    between atoms: _206  and  _207
REMARK   73  A    between atoms: _206  and  _209
REMARK   74  A    between atoms: _209  and  _210
REMARK   75  A    between atoms: _213  and  _215
REMARK   76  A    between atoms: _215  and  _216
REMARK   77  A    between atoms: _215  and  _218
REMARK   78  A    between atoms: _220  and  _222
REMARK   79  A    between atoms: _222  and  _223
REMARK   80  A    between atoms: _222  and  _225
REMARK   81  A    between atoms: _225  and  _226
REMARK   82  A    between atoms: _229  and  _231
REMARK   83  A    between atoms: _231  and  _232
REMARK   84  A    between atoms: _231  and  _234
REMARK   85  A    between atoms: _234  and  _235
REMARK   86  A    between atoms: _238  and  _240
REMARK   87  A    between atoms: _240  and  _241
REMARK   88  A    between atoms: _240  and  _243
REMARK   89  A    between atoms: _243  and  _244
REMARK                            x       y       z     vdW  Elec       q    Type
REMARK                         _______ _______ _______ _____ _____    ______ ____
ROOT
ATOM      1  O   HOH     1      86.747  93.615 -35.487  0.00  0.00    +0.000 OA
ENDROOT
TORSDOF 0
REMARK  Name = ../refined-set-2016/4agl/4agl_pocket.pdb
REMARK  89 active torsions:
REMARK  status: ('A' for Active; 'I' for Inactive)
REMARK    1  A    between atoms: _1  and  _3
REMARK    2  A    between atoms: _3  and  _4
REMARK    3  A    between atoms: _3  and  _6
REMARK    4  A    between atoms: _6  and  _7
REMARK    5  A    between atoms: _12  and  _13
REMARK    6  A    between atoms: _15  and  _17
REMARK    7  A    between atoms: _17  and  _18
REMARK    8  A    between atoms: _17  and  _20
REMARK    9  A    between atoms: _20  and  _21
REMARK   10  A    between atoms: _27  and  _29
REMARK   11  A    between atoms: _29  and  _30
REMARK   12  A    between atoms: _29  and  _32
REMARK   13  A    between atoms: _32  and  _33
REMARK   14  A    between atoms: _33  and  _34
REMARK   15  A    between atoms: _34  and  _35
REMARK   16  A    between atoms: _44  and  _46
REMARK   17  A    between atoms: _46  and  _47
REMARK   18  A    between atoms: _46  and  _49
REMARK   19  A    between atoms: _49  and  _50
REMARK   20  A    between atoms: _50  and  _51
REMARK   21  A    between atoms: _56  and  _58
REMARK   22  A    between atoms: _58  and  _59
REMARK   23  A    between atoms: _58  and  _61
REMARK   24  A    between atoms: _61  and  _62
REMARK   25  A    between atoms: _65  and  _67
REMARK   26  A    between atoms: _67  and  _68
REMARK   27  A    between atoms: _67  and  _70
REMARK   28  A    between atoms: _70  and  _71
REMARK   29  A    between atoms: _81  and  _83
REMARK   30  A    between atoms: _83  and  _84
REMARK   31  A    between atoms: _83  and  _86
REMARK   32  A    between atoms: _89  and  _91
REMARK   33  A    between atoms: _91  and  _92
REMARK   34  A    between atoms: _91  and  _94
REMARK   35  A    between atoms: _94  and  _95
REMARK   36  A    between atoms: _98  and  _100
REMARK   37  A    between atoms: _100  and  _101
REMARK   38  A    between atoms: _100  and  _103
REMARK   39  A    between atoms: _103  and  _104
REMARK   40  A    between atoms: _106  and  _108
REMARK   41  A    between atoms: _108  and  _109
REMARK   42  A    between atoms: _108  and  _111
REMARK   43  A    between atoms: _111  and  _112
REMARK   44  A    between atoms: _116  and  _117
REMARK   45  A    between atoms: _123  and  _124
REMARK   46  A    between atoms: _130  and  _131
REMARK   47  A    between atoms: _136  and  _138
REMARK   48  A    between atoms: _138  and  _139
REMARK   49  A    between atoms: _141  and  _143
REMARK   50  A    between atoms: _143  and  _144
REMARK   51  A    between atoms: _143  and  _146
REMARK   52  A    between atoms: _146  and  _147
REMARK   53  A    between atoms: _150  and  _152
REMARK   54  A    between atoms: _152  and  _153
REMARK   55  A    between atoms: _152  and  _155
REMARK   56  A    between atoms: _159  and  _160
REMARK   57  A    between atoms: _165  and  _167
REMARK   58  A    between atoms: _167  and  _168
REMARK   59  A    between atoms: _167  and  _170
REMARK   60  A    between atoms: _172  and  _174
REMARK   61  A    between atoms: _174  and  _175
REMARK   62  A    between atoms: _174  and  _177
REMARK   63  A    between atoms: _177  and  _178
REMARK   64  A    between atoms: _178  and  _179
REMARK   65  A    between atoms: _183  and  _184
REMARK   66  A    between atoms: _190  and  _191
REMARK   67  A    between atoms: _196  and  _198
REMARK   68  A    between atoms: _198  and  _199
REMARK   69  A    between atoms: _198  and  _201
REMARK   70  A    between atoms: _201  and  _202
REMARK   71  A    between atoms: _204  and  _206
REMARK   72  A    between atoms: _206  and  _207
REMARK   73  A    between atoms: _206  and  _209
REMARK   74  A    between atoms: _209  and  _210
REMARK   75  A    between atoms: _213  and  _215
REMARK   76  A    between atoms: _215  and  _216
REMARK   77  A    between atoms: _215  and  _218
REMARK   78  A    between atoms: _220  and  _222
REMARK   79  A    between atoms: _222  and  _223
REMARK   80  A    between atoms: _222  and  _225
REMARK   81  A    between atoms: _225  and  _226
REMARK   82  A    between atoms: _229  and  _231
REMARK   83  A    between atoms: _231  and  _232
REMARK   84  A    between atoms: _231  and  _234
REMARK   85  A    between atoms: _234  and  _235
REMARK   86  A    between atoms: _238  and  _240
REMARK   87  A    between atoms: _240  and  _241
REMARK   88  A    between atoms: _240  and  _243
REMARK   89  A    between atoms: _243  and  _244
REMARK                            x       y       z     vdW  Elec       q    Type
REMARK                         _______ _______ _______ _____ _____    ______ ____
ROOT
ATOM      1  O   HOH     1      86.060  90.771 -37.713  0.00  0.00    +0.000 OA
ENDROOT
TORSDOF 0
