REMARK  Name = ../refined-set-2016/3nu4/3nu4_pocket.pdb
REMARK  240 active torsions:
REMARK  status: ('A' for Active; 'I' for Inactive)
REMARK    1  A    between atoms: _1  and  _3
REMARK    2  A    between atoms: _3  and  _4
REMARK    3  A    between atoms: _3  and  _6
REMARK    4  A    between atoms: _6  and  _7
REMARK    5  A    between atoms: _7  and  _8
REMARK    6  A    between atoms: _8  and  _9
REMARK    7  A    between atoms: _18  and  _20
REMARK    8  A    between atoms: _20  and  _21
REMARK    9  A    between atoms: _20  and  _23
REMARK   10  A    between atoms: _23  and  _24
REMARK   11  A    between atoms: _27  and  _29
REMARK   12  A    between atoms: _29  and  _30
REMARK   13  A    between atoms: _29  and  _32
REMARK   14  A    between atoms: _32  and  _33
REMARK   15  A    between atoms: _36  and  _38
REMARK   16  A    between atoms: _38  and  _39
REMARK   17  A    between atoms: _38  and  _41
REMARK   18  A    between atoms: _41  and  _42
REMARK   19  A    between atoms: _45  and  _47
REMARK   20  A    between atoms: _47  and  _48
REMARK   21  A    between atoms: _47  and  _50
REMARK   22  A    between atoms: _50  and  _51
REMARK   23  A    between atoms: _54  and  _56
REMARK   24  A    between atoms: _56  and  _57
REMARK   25  A    between atoms: _59  and  _61
REMARK   26  A    between atoms: _61  and  _62
REMARK   27  A    between atoms: _65  and  _67
REMARK   28  A    between atoms: _67  and  _68
REMARK   29  A    between atoms: _67  and  _70
REMARK   30  A    between atoms: _70  and  _71
REMARK   31  A    between atoms: _74  and  _76
REMARK   32  A    between atoms: _76  and  _77
REMARK   33  A    between atoms: _76  and  _79
REMARK   34  A    between atoms: _79  and  _80
REMARK   35  A    between atoms: _83  and  _85
REMARK   36  A    between atoms: _85  and  _86
REMARK   37  A    between atoms: _85  and  _88
REMARK   38  A    between atoms: _88  and  _89
REMARK   39  A    between atoms: _92  and  _94
REMARK   40  A    between atoms: _94  and  _95
REMARK   41  A    between atoms: _94  and  _97
REMARK   42  A    between atoms: _97  and  _98
REMARK   43  A    between atoms: _101  and  _103
REMARK   44  A    between atoms: _103  and  _104
REMARK   45  A    between atoms: _103  and  _106
REMARK   46  A    between atoms: _106  and  _107
REMARK   47  A    between atoms: _107  and  _108
REMARK   48  A    between atoms: _108  and  _109
REMARK   49  A    between atoms: _109  and  _110
REMARK   50  A    between atoms: _114  and  _116
REMARK   51  A    between atoms: _116  and  _117
REMARK   52  A    between atoms: _116  and  _119
REMARK   53  A    between atoms: _119  and  _120
REMARK   54  A    between atoms: _120  and  _121
REMARK   55  A    between atoms: _123  and  _125
REMARK   56  A    between atoms: _125  and  _126
REMARK   57  A    between atoms: _125  and  _128
REMARK   58  A    between atoms: _128  and  _129
REMARK   59  A    between atoms: _132  and  _134
REMARK   60  A    between atoms: _134  and  _135
REMARK   61  A    between atoms: _137  and  _139
REMARK   62  A    between atoms: _139  and  _140
REMARK   63  A    between atoms: _142  and  _144
REMARK   64  A    between atoms: _144  and  _145
REMARK   65  A    between atoms: _144  and  _147
REMARK   66  A    between atoms: _147  and  _148
REMARK   67  A    between atoms: _151  and  _153
REMARK   68  A    between atoms: _153  and  _154
REMARK   69  A    between atoms: _156  and  _158
REMARK   70  A    between atoms: _158  and  _159
REMARK   71  A    between atoms: _161  and  _163
REMARK   72  A    between atoms: _163  and  _164
REMARK   73  A    between atoms: _163  and  _166
REMARK   74  A    between atoms: _166  and  _167
REMARK   75  A    between atoms: _173  and  _175
REMARK   76  A    between atoms: _175  and  _176
REMARK   77  A    between atoms: _175  and  _178
REMARK   78  A    between atoms: _178  and  _179
REMARK   79  A    between atoms: _182  and  _184
REMARK   80  A    between atoms: _184  and  _185
REMARK   81  A    between atoms: _184  and  _187
REMARK   82  A    between atoms: _190  and  _192
REMARK   83  A    between atoms: _192  and  _193
REMARK   84  A    between atoms: _192  and  _195
REMARK   85  A    between atoms: _195  and  _196
REMARK   86  A    between atoms: _200  and  _201
REMARK   87  A    between atoms: _206  and  _208
REMARK   88  A    between atoms: _208  and  _209
REMARK   89  A    between atoms: _208  and  _211
REMARK   90  A    between atoms: _211  and  _212
REMARK   91  A    between atoms: _216  and  _217
REMARK   92  A    between atoms: _222  and  _224
REMARK   93  A    between atoms: _224  and  _225
REMARK   94  A    between atoms: _224  and  _227
REMARK   95  A    between atoms: _230  and  _232
REMARK   96  A    between atoms: _232  and  _233
REMARK   97  A    between atoms: _232  and  _235
REMARK   98  A    between atoms: _235  and  _236
REMARK   99  A    between atoms: _241  and  _243
REMARK  100  A    between atoms: _243  and  _244
REMARK  101  A    between atoms: _243  and  _246
REMARK  102  A    between atoms: _246  and  _247
REMARK  103  A    between atoms: _250  and  _252
REMARK  104  A    between atoms: _252  and  _253
REMARK  105  A    between atoms: _252  and  _255
REMARK  106  A    between atoms: _255  and  _256
REMARK  107  A    between atoms: _259  and  _261
REMARK  108  A    between atoms: _261  and  _262
REMARK  109  A    between atoms: _264  and  _266
REMARK  110  A    between atoms: _266  and  _267
REMARK  111  A    between atoms: _266  and  _269
REMARK  112  A    between atoms: _269  and  _270
REMARK  113  A    between atoms: _270  and  _271
REMARK  114  A    between atoms: _271  and  _272
REMARK  115  A    between atoms: _281  and  _283
REMARK  116  A    between atoms: _283  and  _284
REMARK  117  A    between atoms: _283  and  _286
REMARK  118  A    between atoms: _286  and  _287
REMARK  119  A    between atoms: _292  and  _294
REMARK  120  A    between atoms: _294  and  _295
REMARK  121  A    between atoms: _294  and  _297
REMARK  122  A    between atoms: _297  and  _298
REMARK  123  A    between atoms: _298  and  _299
REMARK  124  A    between atoms: _299  and  _300
REMARK  125  A    between atoms: _309  and  _311
REMARK  126  A    between atoms: _311  and  _312
REMARK  127  A    between atoms: _311  and  _314
REMARK  128  A    between atoms: _314  and  _315
REMARK  129  A    between atoms: _318  and  _320
REMARK  130  A    between atoms: _320  and  _321
REMARK  131  A    between atoms: _320  and  _323
REMARK  132  A    between atoms: _323  and  _324
REMARK  133  A    between atoms: _327  and  _329
REMARK  134  A    between atoms: _329  and  _330
REMARK  135  A    between atoms: _329  and  _332
REMARK  136  A    between atoms: _332  and  _333
REMARK  137  A    between atoms: _336  and  _338
REMARK  138  A    between atoms: _338  and  _339
REMARK  139  A    between atoms: _338  and  _341
REMARK  140  A    between atoms: _341  and  _342
REMARK  141  A    between atoms: _345  and  _347
REMARK  142  A    between atoms: _347  and  _348
REMARK  143  A    between atoms: _350  and  _352
REMARK  144  A    between atoms: _352  and  _353
REMARK  145  A    between atoms: _356  and  _358
REMARK  146  A    between atoms: _358  and  _359
REMARK  147  A    between atoms: _358  and  _361
REMARK  148  A    between atoms: _361  and  _362
REMARK  149  A    between atoms: _365  and  _367
REMARK  150  A    between atoms: _367  and  _368
REMARK  151  A    between atoms: _367  and  _370
REMARK  152  A    between atoms: _370  and  _371
REMARK  153  A    between atoms: _374  and  _376
REMARK  154  A    between atoms: _376  and  _377
REMARK  155  A    between atoms: _376  and  _379
REMARK  156  A    between atoms: _379  and  _380
REMARK  157  A    between atoms: _383  and  _385
REMARK  158  A    between atoms: _385  and  _386
REMARK  159  A    between atoms: _385  and  _388
REMARK  160  A    between atoms: _388  and  _389
REMARK  161  A    between atoms: _392  and  _394
REMARK  162  A    between atoms: _394  and  _395
REMARK  163  A    between atoms: _394  and  _397
REMARK  164  A    between atoms: _397  and  _398
REMARK  165  A    between atoms: _401  and  _403
REMARK  166  A    between atoms: _403  and  _404
REMARK  167  A    between atoms: _403  and  _406
REMARK  168  A    between atoms: _406  and  _407
REMARK  169  A    between atoms: _407  and  _408
REMARK  170  A    between atoms: _408  and  _409
REMARK  171  A    between atoms: _409  and  _410
REMARK  172  A    between atoms: _414  and  _416
REMARK  173  A    between atoms: _416  and  _417
REMARK  174  A    between atoms: _416  and  _419
REMARK  175  A    between atoms: _419  and  _420
REMARK  176  A    between atoms: _420  and  _421
REMARK  177  A    between atoms: _423  and  _425
REMARK  178  A    between atoms: _425  and  _426
REMARK  179  A    between atoms: _425  and  _428
REMARK  180  A    between atoms: _428  and  _429
REMARK  181  A    between atoms: _432  and  _434
REMARK  182  A    between atoms: _434  and  _435
REMARK  183  A    between atoms: _437  and  _439
REMARK  184  A    between atoms: _439  and  _440
REMARK  185  A    between atoms: _442  and  _444
REMARK  186  A    between atoms: _444  and  _445
REMARK  187  A    between atoms: _444  and  _447
REMARK  188  A    between atoms: _447  and  _448
REMARK  189  A    between atoms: _451  and  _453
REMARK  190  A    between atoms: _453  and  _454
REMARK  191  A    between atoms: _456  and  _458
REMARK  192  A    between atoms: _458  and  _459
REMARK  193  A    between atoms: _461  and  _463
REMARK  194  A    between atoms: _463  and  _464
REMARK  195  A    between atoms: _463  and  _466
REMARK  196  A    between atoms: _466  and  _467
REMARK  197  A    between atoms: _473  and  _475
REMARK  198  A    between atoms: _475  and  _476
REMARK  199  A    between atoms: _475  and  _478
REMARK  200  A    between atoms: _478  and  _479
REMARK  201  A    between atoms: _482  and  _484
REMARK  202  A    between atoms: _484  and  _485
REMARK  203  A    between atoms: _484  and  _487
REMARK  204  A    between atoms: _490  and  _492
REMARK  205  A    between atoms: _492  and  _493
REMARK  206  A    between atoms: _492  and  _495
REMARK  207  A    between atoms: _495  and  _496
REMARK  208  A    between atoms: _500  and  _501
REMARK  209  A    between atoms: _506  and  _508
REMARK  210  A    between atoms: _508  and  _509
REMARK  211  A    between atoms: _508  and  _511
REMARK  212  A    between atoms: _511  and  _512
REMARK  213  A    between atoms: _516  and  _517
REMARK  214  A    between atoms: _522  and  _524
REMARK  215  A    between atoms: _524  and  _525
REMARK  216  A    between atoms: _524  and  _527
REMARK  217  A    between atoms: _530  and  _532
REMARK  218  A    between atoms: _532  and  _533
REMARK  219  A    between atoms: _532  and  _535
REMARK  220  A    between atoms: _535  and  _536
REMARK  221  A    between atoms: _541  and  _543
REMARK  222  A    between atoms: _543  and  _544
REMARK  223  A    between atoms: _543  and  _546
REMARK  224  A    between atoms: _546  and  _547
REMARK  225  A    between atoms: _550  and  _552
REMARK  226  A    between atoms: _552  and  _553
REMARK  227  A    between atoms: _552  and  _555
REMARK  228  A    between atoms: _555  and  _556
REMARK  229  A    between atoms: _559  and  _561
REMARK  230  A    between atoms: _561  and  _562
REMARK  231  A    between atoms: _564  and  _566
REMARK  232  A    between atoms: _566  and  _567
REMARK  233  A    between atoms: _566  and  _569
REMARK  234  A    between atoms: _569  and  _570
REMARK  235  A    between atoms: _570  and  _571
REMARK  236  A    between atoms: _571  and  _572
REMARK  237  A    between atoms: _581  and  _583
REMARK  238  A    between atoms: _583  and  _584
REMARK  239  A    between atoms: _583  and  _586
REMARK  240  A    between atoms: _586  and  _587
REMARK                            x       y       z     vdW  Elec       q    Type
REMARK                         _______ _______ _______ _____ _____    ______ ____
ROOT
ATOM      1  NE  ARG A   1       6.927  20.890  15.221  0.00  0.00    -0.265 N 
ATOM      2  HE  ARG A   1       6.885  20.613  16.222  0.00  0.00    +0.259 HD
ATOM      3  CZ  ARG A   1       7.723  20.212  14.394  0.00  0.00    +0.342 C 
ATOM      4  NH2 ARG A   1       8.430  19.201  14.897  0.00  0.00    -0.292 N 
ATOM      5 HH21 ARG A   1       8.351  18.962  15.906  0.00  0.00    +0.255 HD
ATOM      6 HH22 ARG A   1       9.061  18.650  14.281  0.00  0.00    +0.255 HD
ATOM      7  NH1 ARG A   1       7.777  20.576  13.102  0.00  0.00    -0.292 N 
ATOM      8 HH11 ARG A   1       7.204  21.375  12.762  0.00  0.00    +0.255 HD
ATOM      9 HH12 ARG A   1       8.392  20.059  12.441  0.00  0.00    +0.255 HD
ENDROOT
BRANCH   1  10
ATOM     10  CD  ARG A   1       6.113  22.011  14.760  0.00  0.00    +0.174 C 
BRANCH  10  11
ATOM     11  CG  ARG A   1       5.325  22.544  15.958  0.00  0.00    +0.045 C 
BRANCH  11  12
ATOM     12  CB  ARG A   1       4.571  23.828  15.593  0.00  0.00    +0.029 C 
BRANCH  12  13
ATOM     13  CA  ARG A   1       3.955  24.556  16.794  0.00  0.00    +0.133 C 
BRANCH  13  14
ATOM     14  N   ARG A   1       2.785  23.830  17.233  0.00  0.00    -0.239 NA
ATOM     15  H   ARG A   1       2.487  22.955  16.757  0.00  0.00    +0.142 HD
ENDBRANCH  13  14
BRANCH  13  16
ATOM     16  C   ARG A   1       3.600  25.978  16.365  0.00  0.00    +0.224 C 
ATOM     17  O   ARG A   1       2.598  26.114  15.668  0.00  0.00    -0.287 OA
ENDBRANCH  13  16
ENDBRANCH  12  13
ENDBRANCH  11  12
ENDBRANCH  10  11
ENDBRANCH   1  10
TORSDOF 6
REMARK  Name = ../refined-set-2016/3nu4/3nu4_pocket.pdb
REMARK  240 active torsions:
REMARK  status: ('A' for Active; 'I' for Inactive)
REMARK    1  A    between atoms: _1  and  _3
REMARK    2  A    between atoms: _3  and  _4
REMARK    3  A    between atoms: _3  and  _6
REMARK    4  A    between atoms: _6  and  _7
REMARK    5  A    between atoms: _7  and  _8
REMARK    6  A    between atoms: _8  and  _9
REMARK    7  A    between atoms: _18  and  _20
REMARK    8  A    between atoms: _20  and  _21
REMARK    9  A    between atoms: _20  and  _23
REMARK   10  A    between atoms: _23  and  _24
REMARK   11  A    between atoms: _27  and  _29
REMARK   12  A    between atoms: _29  and  _30
REMARK   13  A    between atoms: _29  and  _32
REMARK   14  A    between atoms: _32  and  _33
REMARK   15  A    between atoms: _36  and  _38
REMARK   16  A    between atoms: _38  and  _39
REMARK   17  A    between atoms: _38  and  _41
REMARK   18  A    between atoms: _41  and  _42
REMARK   19  A    between atoms: _45  and  _47
REMARK   20  A    between atoms: _47  and  _48
REMARK   21  A    between atoms: _47  and  _50
REMARK   22  A    between atoms: _50  and  _51
REMARK   23  A    between atoms: _54  and  _56
REMARK   24  A    between atoms: _56  and  _57
REMARK   25  A    between atoms: _59  and  _61
REMARK   26  A    between atoms: _61  and  _62
REMARK   27  A    between atoms: _65  and  _67
REMARK   28  A    between atoms: _67  and  _68
REMARK   29  A    between atoms: _67  and  _70
REMARK   30  A    between atoms: _70  and  _71
REMARK   31  A    between atoms: _74  and  _76
REMARK   32  A    between atoms: _76  and  _77
REMARK   33  A    between atoms: _76  and  _79
REMARK   34  A    between atoms: _79  and  _80
REMARK   35  A    between atoms: _83  and  _85
REMARK   36  A    between atoms: _85  and  _86
REMARK   37  A    between atoms: _85  and  _88
REMARK   38  A    between atoms: _88  and  _89
REMARK   39  A    between atoms: _92  and  _94
REMARK   40  A    between atoms: _94  and  _95
REMARK   41  A    between atoms: _94  and  _97
REMARK   42  A    between atoms: _97  and  _98
REMARK   43  A    between atoms: _101  and  _103
REMARK   44  A    between atoms: _103  and  _104
REMARK   45  A    between atoms: _103  and  _106
REMARK   46  A    between atoms: _106  and  _107
REMARK   47  A    between atoms: _107  and  _108
REMARK   48  A    between atoms: _108  and  _109
REMARK   49  A    between atoms: _109  and  _110
REMARK   50  A    between atoms: _114  and  _116
REMARK   51  A    between atoms: _116  and  _117
REMARK   52  A    between atoms: _116  and  _119
REMARK   53  A    between atoms: _119  and  _120
REMARK   54  A    between atoms: _120  and  _121
REMARK   55  A    between atoms: _123  and  _125
REMARK   56  A    between atoms: _125  and  _126
REMARK   57  A    between atoms: _125  and  _128
REMARK   58  A    between atoms: _128  and  _129
REMARK   59  A    between atoms: _132  and  _134
REMARK   60  A    between atoms: _134  and  _135
REMARK   61  A    between atoms: _137  and  _139
REMARK   62  A    between atoms: _139  and  _140
REMARK   63  A    between atoms: _142  and  _144
REMARK   64  A    between atoms: _144  and  _145
REMARK   65  A    between atoms: _144  and  _147
REMARK   66  A    between atoms: _147  and  _148
REMARK   67  A    between atoms: _151  and  _153
REMARK   68  A    between atoms: _153  and  _154
REMARK   69  A    between atoms: _156  and  _158
REMARK   70  A    between atoms: _158  and  _159
REMARK   71  A    between atoms: _161  and  _163
REMARK   72  A    between atoms: _163  and  _164
REMARK   73  A    between atoms: _163  and  _166
REMARK   74  A    between atoms: _166  and  _167
REMARK   75  A    between atoms: _173  and  _175
REMARK   76  A    between atoms: _175  and  _176
REMARK   77  A    between atoms: _175  and  _178
REMARK   78  A    between atoms: _178  and  _179
REMARK   79  A    between atoms: _182  and  _184
REMARK   80  A    between atoms: _184  and  _185
REMARK   81  A    between atoms: _184  and  _187
REMARK   82  A    between atoms: _190  and  _192
REMARK   83  A    between atoms: _192  and  _193
REMARK   84  A    between atoms: _192  and  _195
REMARK   85  A    between atoms: _195  and  _196
REMARK   86  A    between atoms: _200  and  _201
REMARK   87  A    between atoms: _206  and  _208
REMARK   88  A    between atoms: _208  and  _209
REMARK   89  A    between atoms: _208  and  _211
REMARK   90  A    between atoms: _211  and  _212
REMARK   91  A    between atoms: _216  and  _217
REMARK   92  A    between atoms: _222  and  _224
REMARK   93  A    between atoms: _224  and  _225
REMARK   94  A    between atoms: _224  and  _227
REMARK   95  A    between atoms: _230  and  _232
REMARK   96  A    between atoms: _232  and  _233
REMARK   97  A    between atoms: _232  and  _235
REMARK   98  A    between atoms: _235  and  _236
REMARK   99  A    between atoms: _241  and  _243
REMARK  100  A    between atoms: _243  and  _244
REMARK  101  A    between atoms: _243  and  _246
REMARK  102  A    between atoms: _246  and  _247
REMARK  103  A    between atoms: _250  and  _252
REMARK  104  A    between atoms: _252  and  _253
REMARK  105  A    between atoms: _252  and  _255
REMARK  106  A    between atoms: _255  and  _256
REMARK  107  A    between atoms: _259  and  _261
REMARK  108  A    between atoms: _261  and  _262
REMARK  109  A    between atoms: _264  and  _266
REMARK  110  A    between atoms: _266  and  _267
REMARK  111  A    between atoms: _266  and  _269
REMARK  112  A    between atoms: _269  and  _270
REMARK  113  A    between atoms: _270  and  _271
REMARK  114  A    between atoms: _271  and  _272
REMARK  115  A    between atoms: _281  and  _283
REMARK  116  A    between atoms: _283  and  _284
REMARK  117  A    between atoms: _283  and  _286
REMARK  118  A    between atoms: _286  and  _287
REMARK  119  A    between atoms: _292  and  _294
REMARK  120  A    between atoms: _294  and  _295
REMARK  121  A    between atoms: _294  and  _297
REMARK  122  A    between atoms: _297  and  _298
REMARK  123  A    between atoms: _298  and  _299
REMARK  124  A    between atoms: _299  and  _300
REMARK  125  A    between atoms: _309  and  _311
REMARK  126  A    between atoms: _311  and  _312
REMARK  127  A    between atoms: _311  and  _314
REMARK  128  A    between atoms: _314  and  _315
REMARK  129  A    between atoms: _318  and  _320
REMARK  130  A    between atoms: _320  and  _321
REMARK  131  A    between atoms: _320  and  _323
REMARK  132  A    between atoms: _323  and  _324
REMARK  133  A    between atoms: _327  and  _329
REMARK  134  A    between atoms: _329  and  _330
REMARK  135  A    between atoms: _329  and  _332
REMARK  136  A    between atoms: _332  and  _333
REMARK  137  A    between atoms: _336  and  _338
REMARK  138  A    between atoms: _338  and  _339
REMARK  139  A    between atoms: _338  and  _341
REMARK  140  A    between atoms: _341  and  _342
REMARK  141  A    between atoms: _345  and  _347
REMARK  142  A    between atoms: _347  and  _348
REMARK  143  A    between atoms: _350  and  _352
REMARK  144  A    between atoms: _352  and  _353
REMARK  145  A    between atoms: _356  and  _358
REMARK  146  A    between atoms: _358  and  _359
REMARK  147  A    between atoms: _358  and  _361
REMARK  148  A    between atoms: _361  and  _362
REMARK  149  A    between atoms: _365  and  _367
REMARK  150  A    between atoms: _367  and  _368
REMARK  151  A    between atoms: _367  and  _370
REMARK  152  A    between atoms: _370  and  _371
REMARK  153  A    between atoms: _374  and  _376
REMARK  154  A    between atoms: _376  and  _377
REMARK  155  A    between atoms: _376  and  _379
REMARK  156  A    between atoms: _379  and  _380
REMARK  157  A    between atoms: _383  and  _385
REMARK  158  A    between atoms: _385  and  _386
REMARK  159  A    between atoms: _385  and  _388
REMARK  160  A    between atoms: _388  and  _389
REMARK  161  A    between atoms: _392  and  _394
REMARK  162  A    between atoms: _394  and  _395
REMARK  163  A    between atoms: _394  and  _397
REMARK  164  A    between atoms: _397  and  _398
REMARK  165  A    between atoms: _401  and  _403
REMARK  166  A    between atoms: _403  and  _404
REMARK  167  A    between atoms: _403  and  _406
REMARK  168  A    between atoms: _406  and  _407
REMARK  169  A    between atoms: _407  and  _408
REMARK  170  A    between atoms: _408  and  _409
REMARK  171  A    between atoms: _409  and  _410
REMARK  172  A    between atoms: _414  and  _416
REMARK  173  A    between atoms: _416  and  _417
REMARK  174  A    between atoms: _416  and  _419
REMARK  175  A    between atoms: _419  and  _420
REMARK  176  A    between atoms: _420  and  _421
REMARK  177  A    between atoms: _423  and  _425
REMARK  178  A    between atoms: _425  and  _426
REMARK  179  A    between atoms: _425  and  _428
REMARK  180  A    between atoms: _428  and  _429
REMARK  181  A    between atoms: _432  and  _434
REMARK  182  A    between atoms: _434  and  _435
REMARK  183  A    between atoms: _437  and  _439
REMARK  184  A    between atoms: _439  and  _440
REMARK  185  A    between atoms: _442  and  _444
REMARK  186  A    between atoms: _444  and  _445
REMARK  187  A    between atoms: _444  and  _447
REMARK  188  A    between atoms: _447  and  _448
REMARK  189  A    between atoms: _451  and  _453
REMARK  190  A    between atoms: _453  and  _454
REMARK  191  A    between atoms: _456  and  _458
REMARK  192  A    between atoms: _458  and  _459
REMARK  193  A    between atoms: _461  and  _463
REMARK  194  A    between atoms: _463  and  _464
REMARK  195  A    between atoms: _463  and  _466
REMARK  196  A    between atoms: _466  and  _467
REMARK  197  A    between atoms: _473  and  _475
REMARK  198  A    between atoms: _475  and  _476
REMARK  199  A    between atoms: _475  and  _478
REMARK  200  A    between atoms: _478  and  _479
REMARK  201  A    between atoms: _482  and  _484
REMARK  202  A    between atoms: _484  and  _485
REMARK  203  A    between atoms: _484  and  _487
REMARK  204  A    between atoms: _490  and  _492
REMARK  205  A    between atoms: _492  and  _493
REMARK  206  A    between atoms: _492  and  _495
REMARK  207  A    between atoms: _495  and  _496
REMARK  208  A    between atoms: _500  and  _501
REMARK  209  A    between atoms: _506  and  _508
REMARK  210  A    between atoms: _508  and  _509
REMARK  211  A    between atoms: _508  and  _511
REMARK  212  A    between atoms: _511  and  _512
REMARK  213  A    between atoms: _516  and  _517
REMARK  214  A    between atoms: _522  and  _524
REMARK  215  A    between atoms: _524  and  _525
REMARK  216  A    between atoms: _524  and  _527
REMARK  217  A    between atoms: _530  and  _532
REMARK  218  A    between atoms: _532  and  _533
REMARK  219  A    between atoms: _532  and  _535
REMARK  220  A    between atoms: _535  and  _536
REMARK  221  A    between atoms: _541  and  _543
REMARK  222  A    between atoms: _543  and  _544
REMARK  223  A    between atoms: _543  and  _546
REMARK  224  A    between atoms: _546  and  _547
REMARK  225  A    between atoms: _550  and  _552
REMARK  226  A    between atoms: _552  and  _553
REMARK  227  A    between atoms: _552  and  _555
REMARK  228  A    between atoms: _555  and  _556
REMARK  229  A    between atoms: _559  and  _561
REMARK  230  A    between atoms: _561  and  _562
REMARK  231  A    between atoms: _564  and  _566
REMARK  232  A    between atoms: _566  and  _567
REMARK  233  A    between atoms: _566  and  _569
REMARK  234  A    between atoms: _569  and  _570
REMARK  235  A    between atoms: _570  and  _571
REMARK  236  A    between atoms: _571  and  _572
REMARK  237  A    between atoms: _581  and  _583
REMARK  238  A    between atoms: _583  and  _584
REMARK  239  A    between atoms: _583  and  _586
REMARK  240  A    between atoms: _586  and  _587
REMARK                            x       y       z     vdW  Elec       q    Type
REMARK                         _______ _______ _______ _____ _____    ______ ____
ROOT
ATOM      1  C   GLY A   5      16.843  28.375  19.696  0.00  0.00    +0.243 C 
ATOM      2  O   GLY A   5      17.918  27.782  19.848  0.00  0.00    -0.273 OA
ATOM      3  N   ALA A   6      16.573  29.032  18.606  0.00  0.00    -0.297 N 
ATOM      4  H   ALA A   6      15.665  29.536  18.558  0.00  0.00    +0.150 HD
ENDROOT
BRANCH   3   5
ATOM      5  CA  ALA A   6      17.454  29.111  17.447  0.00  0.00    +0.149 C 
ATOM      6  CB  ALA A   6      16.614  29.003  16.192  0.00  0.00    +0.031 C 
BRANCH   5   7
ATOM      7  C   ALA A   6      18.147  30.455  17.445  0.00  0.00    +0.241 C 
ATOM      8  N   ASP A   7      19.487  30.477  17.444  0.00  0.00    -0.297 N 
ATOM      9  H   ASP A   7      20.022  29.585  17.457  0.00  0.00    +0.150 HD
ATOM     10  O   ALA A   6      17.507  31.484  17.434  0.00  0.00    -0.273 OA
BRANCH   8  11
ATOM     11  CA  ASP A   7      20.190  31.744  17.425  0.00  0.00    +0.160 C 
BRANCH  11  12
ATOM     12  C   ASP A   7      19.923  32.509  16.131  0.00  0.00    +0.241 C 
ATOM     13  O   ASP A   7      19.754  33.742  16.180  0.00  0.00    -0.273 OA
ATOM     14  N   ASP A   8      19.909  31.796  15.017  0.00  0.00    -0.297 N 
ATOM     15  H   ASP A   8      19.962  30.760  15.093  0.00  0.00    +0.150 HD
BRANCH  14  16
ATOM     16  CA  ASP A   8      19.824  32.387  13.694  0.00  0.00    +0.160 C 
BRANCH  16  17
ATOM     17  C   ASP A   8      18.762  31.666  12.872  0.00  0.00    +0.241 C 
ATOM     18  O   ASP A   8      18.458  30.514  13.016  0.00  0.00    -0.273 OA
ATOM     19  N   THR A   9      18.211  32.403  11.970  0.00  0.00    -0.295 N 
ATOM     20  H   THR A   9      18.525  33.393  11.910  0.00  0.00    +0.150 HD
BRANCH  19  21
ATOM     21  CA  THR A   9      17.192  31.974  11.031  0.00  0.00    +0.176 C 
BRANCH  21  22
ATOM     22  C   THR A   9      17.789  31.051   9.995  0.00  0.00    +0.243 C 
ATOM     23  N   ILE A  10      17.114  29.924   9.721  0.00  0.00    -0.298 N 
ATOM     24  H   ILE A  10      16.208  29.775  10.209  0.00  0.00    +0.150 HD
ATOM     25  O   THR A   9      18.876  31.352   9.462  0.00  0.00    -0.273 OA
BRANCH  23  26
ATOM     26  CA  ILE A  10      17.558  28.889   8.787  0.00  0.00    +0.137 C 
BRANCH  26  27
ATOM     27  C   ILE A  10      16.381  28.454   7.955  0.00  0.00    +0.227 C 
ATOM     28  O   ILE A  10      15.346  28.082   8.471  0.00  0.00    -0.286 OA
ENDBRANCH  26  27
BRANCH  26  29
ATOM     29  CB  ILE A  10      18.252  27.726   9.504  0.00  0.00    +0.026 C 
ATOM     30  CG2 ILE A  10      17.486  27.127  10.675  0.00  0.00    +0.002 C 
BRANCH  29  31
ATOM     31  CG1 ILE A  10      18.699  26.586   8.586  0.00  0.00    +0.002 C 
ATOM     32  CD1 ILE A  10      19.593  26.879   7.466  0.00  0.00    +0.000 C 
ENDBRANCH  29  31
ENDBRANCH  26  29
ENDBRANCH  23  26
ENDBRANCH  21  22
BRANCH  21  33
ATOM     33  CB  THR A   9      16.644  33.247  10.394  0.00  0.00    +0.137 C 
ATOM     34  CG2 THR A   9      15.672  32.979   9.252  0.00  0.00    +0.034 C 
BRANCH  33  35
ATOM     35  OG1 THR A   9      15.992  33.990  11.413  0.00  0.00    -0.382 OA
ATOM     36  HG1 THR A   9      16.643  34.212  12.125  0.00  0.00    +0.210 HD
ENDBRANCH  33  35
ENDBRANCH  21  33
ENDBRANCH  19  21
ENDBRANCH  16  17
BRANCH  16  37
ATOM     37  CB  ASP A   8      21.138  32.412  12.974  0.00  0.00    +0.143 C 
BRANCH  37  38
ATOM     38  CG  ASP A   8      22.165  33.373  13.579  0.00  0.00    +0.367 C 
ATOM     39  OD2 ASP A   8      23.195  32.847  14.086  0.00  0.00    -0.246 OA
ATOM     40  OD1 ASP A   8      21.909  34.628  13.533  0.00  0.00    -0.246 OA
ENDBRANCH  37  38
ENDBRANCH  16  37
ENDBRANCH  14  16
ENDBRANCH  11  12
BRANCH  11  41
ATOM     41  CB  ASP A   7      21.692  31.506  17.594  0.00  0.00    +0.143 C 
BRANCH  41  42
ATOM     42  CG  ASP A   7      22.153  30.963  18.940  0.00  0.00    +0.367 C 
ATOM     43  OD2 ASP A   7      21.441  31.042  19.944  0.00  0.00    -0.246 OA
ATOM     44  OD1 ASP A   7      23.300  30.433  18.997  0.00  0.00    -0.246 OA
ENDBRANCH  41  42
ENDBRANCH  11  41
ENDBRANCH   8  11
ENDBRANCH   5   7
ENDBRANCH   3   5
BRANCH   1  45
ATOM     45  CA  GLY A   5      15.840  28.313  20.799  0.00  0.00    +0.176 C 
BRANCH  45  48
ATOM     46  C   THR A   4      14.576  30.361  20.925  0.00  0.00    +0.243 C 
ATOM     47  O   THR A   4      15.488  30.988  21.455  0.00  0.00    -0.273 OA
ATOM     48  N   GLY A   5      14.647  29.095  20.578  0.00  0.00    -0.295 N 
ATOM     49  H   GLY A   5      13.822  28.645  20.133  0.00  0.00    +0.150 HD
BRANCH  46  50
ATOM     50  CA  THR A   4      13.290  31.104  20.593  0.00  0.00    +0.176 C 
BRANCH  50  52
ATOM     51  C   ASP A   3      12.866  30.262  18.348  0.00  0.00    +0.241 C 
ATOM     52  N   THR A   4      12.497  30.411  19.603  0.00  0.00    -0.295 N 
ATOM     53  H   THR A   4      11.585  30.008  19.898  0.00  0.00    +0.150 HD
ATOM     54  O   ASP A   3      13.947  30.701  17.941  0.00  0.00    -0.273 OA
BRANCH  51  55
ATOM     55  CA  ASP A   3      11.889  29.520  17.458  0.00  0.00    +0.160 C 
BRANCH  55  58
ATOM     56  C   LEU A   2       9.802  30.377  16.573  0.00  0.00    +0.241 C 
ATOM     57  O   LEU A   2       9.134  29.773  17.439  0.00  0.00    -0.273 OA
ATOM     58  N   ASP A   3      11.101  30.373  16.587  0.00  0.00    -0.297 N 
ATOM     59  H   ASP A   3      11.603  31.015  15.940  0.00  0.00    +0.150 HD
BRANCH  56  60
ATOM     60  CA  LEU A   2       9.068  30.991  15.416  0.00  0.00    +0.149 C 
BRANCH  60  62
ATOM     61  C   LEU A   1       9.197  29.285  13.682  0.00  0.00    +0.238 C 
ATOM     62  N   LEU A   2       8.493  29.928  14.589  0.00  0.00    -0.297 N 
ATOM     63  H   LEU A   2       7.494  29.672  14.723  0.00  0.00    +0.150 HD
ATOM     64  O   LEU A   1      10.372  29.568  13.442  0.00  0.00    -0.274 OA
BRANCH  61  65
ATOM     65  CA  LEU A   1       8.553  28.122  12.925  0.00  0.00    +0.145 C 
BRANCH  65  66
ATOM     66  N   LEU A   1       8.720  28.254  11.492  0.00  0.00    -0.238 NA
ATOM     67  H   LEU A   1       9.553  27.817  11.049  0.00  0.00    +0.142 HD
ENDBRANCH  65  66
BRANCH  65  68
ATOM     68  CB  LEU A   1       9.193  26.794  13.275  0.00  0.00    +0.026 C 
BRANCH  68  69
ATOM     69  CG  LEU A   1       9.274  26.257  14.674  0.00  0.00    +0.002 C 
ATOM     70  CD2 LEU A   1       7.927  25.996  15.257  0.00  0.00    +0.000 C 
ATOM     71  CD1 LEU A   1      10.063  24.929  14.642  0.00  0.00    +0.000 C 
ENDBRANCH  68  69
ENDBRANCH  65  68
ENDBRANCH  61  65
ENDBRANCH  60  62
BRANCH  60  72
ATOM     72  CB  LEU A   2       7.963  31.879  15.980  0.00  0.00    +0.029 C 
BRANCH  72  73
ATOM     73  CG  LEU A   2       7.134  32.638  14.929  0.00  0.00    +0.002 C 
ATOM     74  CD2 LEU A   2       6.204  33.569  15.693  0.00  0.00    +0.000 C 
ATOM     75  CD1 LEU A   2       8.001  33.388  13.955  0.00  0.00    +0.000 C 
ENDBRANCH  72  73
ENDBRANCH  60  72
ENDBRANCH  56  60
ENDBRANCH  55  58
BRANCH  55  76
ATOM     76  CB  ASP A   3      12.703  28.599  16.525  0.00  0.00    +0.143 C 
BRANCH  76  77
ATOM     77  CG  ASP A   3      13.343  27.494  17.290  0.00  0.00    +0.367 C 
ATOM     78  OD2 ASP A   3      13.290  27.520  18.549  0.00  0.00    -0.246 OA
ATOM     79  OD1 ASP A   3      13.893  26.547  16.682  0.00  0.00    -0.246 OA
ENDBRANCH  76  77
ENDBRANCH  55  76
ENDBRANCH  51  55
ENDBRANCH  50  52
BRANCH  50  80
ATOM     80  CB  THR A   4      12.511  31.381  21.882  0.00  0.00    +0.137 C 
ATOM     81  CG2 THR A   4      11.291  32.237  21.621  0.00  0.00    +0.034 C 
BRANCH  80  82
ATOM     82  OG1 THR A   4      12.074  30.133  22.443  0.00  0.00    -0.382 OA
ATOM     83  HG1 THR A   4      12.862  29.569  22.644  0.00  0.00    +0.210 HD
ENDBRANCH  80  82
ENDBRANCH  50  80
ENDBRANCH  46  50
ENDBRANCH  45  48
ENDBRANCH   1  45
TORSDOF 36
REMARK  Name = ../refined-set-2016/3nu4/3nu4_pocket.pdb
REMARK  240 active torsions:
REMARK  status: ('A' for Active; 'I' for Inactive)
REMARK    1  A    between atoms: _1  and  _3
REMARK    2  A    between atoms: _3  and  _4
REMARK    3  A    between atoms: _3  and  _6
REMARK    4  A    between atoms: _6  and  _7
REMARK    5  A    between atoms: _7  and  _8
REMARK    6  A    between atoms: _8  and  _9
REMARK    7  A    between atoms: _18  and  _20
REMARK    8  A    between atoms: _20  and  _21
REMARK    9  A    between atoms: _20  and  _23
REMARK   10  A    between atoms: _23  and  _24
REMARK   11  A    between atoms: _27  and  _29
REMARK   12  A    between atoms: _29  and  _30
REMARK   13  A    between atoms: _29  and  _32
REMARK   14  A    between atoms: _32  and  _33
REMARK   15  A    between atoms: _36  and  _38
REMARK   16  A    between atoms: _38  and  _39
REMARK   17  A    between atoms: _38  and  _41
REMARK   18  A    between atoms: _41  and  _42
REMARK   19  A    between atoms: _45  and  _47
REMARK   20  A    between atoms: _47  and  _48
REMARK   21  A    between atoms: _47  and  _50
REMARK   22  A    between atoms: _50  and  _51
REMARK   23  A    between atoms: _54  and  _56
REMARK   24  A    between atoms: _56  and  _57
REMARK   25  A    between atoms: _59  and  _61
REMARK   26  A    between atoms: _61  and  _62
REMARK   27  A    between atoms: _65  and  _67
REMARK   28  A    between atoms: _67  and  _68
REMARK   29  A    between atoms: _67  and  _70
REMARK   30  A    between atoms: _70  and  _71
REMARK   31  A    between atoms: _74  and  _76
REMARK   32  A    between atoms: _76  and  _77
REMARK   33  A    between atoms: _76  and  _79
REMARK   34  A    between atoms: _79  and  _80
REMARK   35  A    between atoms: _83  and  _85
REMARK   36  A    between atoms: _85  and  _86
REMARK   37  A    between atoms: _85  and  _88
REMARK   38  A    between atoms: _88  and  _89
REMARK   39  A    between atoms: _92  and  _94
REMARK   40  A    between atoms: _94  and  _95
REMARK   41  A    between atoms: _94  and  _97
REMARK   42  A    between atoms: _97  and  _98
REMARK   43  A    between atoms: _101  and  _103
REMARK   44  A    between atoms: _103  and  _104
REMARK   45  A    between atoms: _103  and  _106
REMARK   46  A    between atoms: _106  and  _107
REMARK   47  A    between atoms: _107  and  _108
REMARK   48  A    between atoms: _108  and  _109
REMARK   49  A    between atoms: _109  and  _110
REMARK   50  A    between atoms: _114  and  _116
REMARK   51  A    between atoms: _116  and  _117
REMARK   52  A    between atoms: _116  and  _119
REMARK   53  A    between atoms: _119  and  _120
REMARK   54  A    between atoms: _120  and  _121
REMARK   55  A    between atoms: _123  and  _125
REMARK   56  A    between atoms: _125  and  _126
REMARK   57  A    between atoms: _125  and  _128
REMARK   58  A    between atoms: _128  and  _129
REMARK   59  A    between atoms: _132  and  _134
REMARK   60  A    between atoms: _134  and  _135
REMARK   61  A    between atoms: _137  and  _139
REMARK   62  A    between atoms: _139  and  _140
REMARK   63  A    between atoms: _142  and  _144
REMARK   64  A    between atoms: _144  and  _145
REMARK   65  A    between atoms: _144  and  _147
REMARK   66  A    between atoms: _147  and  _148
REMARK   67  A    between atoms: _151  and  _153
REMARK   68  A    between atoms: _153  and  _154
REMARK   69  A    between atoms: _156  and  _158
REMARK   70  A    between atoms: _158  and  _159
REMARK   71  A    between atoms: _161  and  _163
REMARK   72  A    between atoms: _163  and  _164
REMARK   73  A    between atoms: _163  and  _166
REMARK   74  A    between atoms: _166  and  _167
REMARK   75  A    between atoms: _173  and  _175
REMARK   76  A    between atoms: _175  and  _176
REMARK   77  A    between atoms: _175  and  _178
REMARK   78  A    between atoms: _178  and  _179
REMARK   79  A    between atoms: _182  and  _184
REMARK   80  A    between atoms: _184  and  _185
REMARK   81  A    between atoms: _184  and  _187
REMARK   82  A    between atoms: _190  and  _192
REMARK   83  A    between atoms: _192  and  _193
REMARK   84  A    between atoms: _192  and  _195
REMARK   85  A    between atoms: _195  and  _196
REMARK   86  A    between atoms: _200  and  _201
REMARK   87  A    between atoms: _206  and  _208
REMARK   88  A    between atoms: _208  and  _209
REMARK   89  A    between atoms: _208  and  _211
REMARK   90  A    between atoms: _211  and  _212
REMARK   91  A    between atoms: _216  and  _217
REMARK   92  A    between atoms: _222  and  _224
REMARK   93  A    between atoms: _224  and  _225
REMARK   94  A    between atoms: _224  and  _227
REMARK   95  A    between atoms: _230  and  _232
REMARK   96  A    between atoms: _232  and  _233
REMARK   97  A    between atoms: _232  and  _235
REMARK   98  A    between atoms: _235  and  _236
REMARK   99  A    between atoms: _241  and  _243
REMARK  100  A    between atoms: _243  and  _244
REMARK  101  A    between atoms: _243  and  _246
REMARK  102  A    between atoms: _246  and  _247
REMARK  103  A    between atoms: _250  and  _252
REMARK  104  A    between atoms: _252  and  _253
REMARK  105  A    between atoms: _252  and  _255
REMARK  106  A    between atoms: _255  and  _256
REMARK  107  A    between atoms: _259  and  _261
REMARK  108  A    between atoms: _261  and  _262
REMARK  109  A    between atoms: _264  and  _266
REMARK  110  A    between atoms: _266  and  _267
REMARK  111  A    between atoms: _266  and  _269
REMARK  112  A    between atoms: _269  and  _270
REMARK  113  A    between atoms: _270  and  _271
REMARK  114  A    between atoms: _271  and  _272
REMARK  115  A    between atoms: _281  and  _283
REMARK  116  A    between atoms: _283  and  _284
REMARK  117  A    between atoms: _283  and  _286
REMARK  118  A    between atoms: _286  and  _287
REMARK  119  A    between atoms: _292  and  _294
REMARK  120  A    between atoms: _294  and  _295
REMARK  121  A    between atoms: _294  and  _297
REMARK  122  A    between atoms: _297  and  _298
REMARK  123  A    between atoms: _298  and  _299
REMARK  124  A    between atoms: _299  and  _300
REMARK  125  A    between atoms: _309  and  _311
REMARK  126  A    between atoms: _311  and  _312
REMARK  127  A    between atoms: _311  and  _314
REMARK  128  A    between atoms: _314  and  _315
REMARK  129  A    between atoms: _318  and  _320
REMARK  130  A    between atoms: _320  and  _321
REMARK  131  A    between atoms: _320  and  _323
REMARK  132  A    between atoms: _323  and  _324
REMARK  133  A    between atoms: _327  and  _329
REMARK  134  A    between atoms: _329  and  _330
REMARK  135  A    between atoms: _329  and  _332
REMARK  136  A    between atoms: _332  and  _333
REMARK  137  A    between atoms: _336  and  _338
REMARK  138  A    between atoms: _338  and  _339
REMARK  139  A    between atoms: _338  and  _341
REMARK  140  A    between atoms: _341  and  _342
REMARK  141  A    between atoms: _345  and  _347
REMARK  142  A    between atoms: _347  and  _348
REMARK  143  A    between atoms: _350  and  _352
REMARK  144  A    between atoms: _352  and  _353
REMARK  145  A    between atoms: _356  and  _358
REMARK  146  A    between atoms: _358  and  _359
REMARK  147  A    between atoms: _358  and  _361
REMARK  148  A    between atoms: _361  and  _362
REMARK  149  A    between atoms: _365  and  _367
REMARK  150  A    between atoms: _367  and  _368
REMARK  151  A    between atoms: _367  and  _370
REMARK  152  A    between atoms: _370  and  _371
REMARK  153  A    between atoms: _374  and  _376
REMARK  154  A    between atoms: _376  and  _377
REMARK  155  A    between atoms: _376  and  _379
REMARK  156  A    between atoms: _379  and  _380
REMARK  157  A    between atoms: _383  and  _385
REMARK  158  A    between atoms: _385  and  _386
REMARK  159  A    between atoms: _385  and  _388
REMARK  160  A    between atoms: _388  and  _389
REMARK  161  A    between atoms: _392  and  _394
REMARK  162  A    between atoms: _394  and  _395
REMARK  163  A    between atoms: _394  and  _397
REMARK  164  A    between atoms: _397  and  _398
REMARK  165  A    between atoms: _401  and  _403
REMARK  166  A    between atoms: _403  and  _404
REMARK  167  A    between atoms: _403  and  _406
REMARK  168  A    between atoms: _406  and  _407
REMARK  169  A    between atoms: _407  and  _408
REMARK  170  A    between atoms: _408  and  _409
REMARK  171  A    between atoms: _409  and  _410
REMARK  172  A    between atoms: _414  and  _416
REMARK  173  A    between atoms: _416  and  _417
REMARK  174  A    between atoms: _416  and  _419
REMARK  175  A    between atoms: _419  and  _420
REMARK  176  A    between atoms: _420  and  _421
REMARK  177  A    between atoms: _423  and  _425
REMARK  178  A    between atoms: _425  and  _426
REMARK  179  A    between atoms: _425  and  _428
REMARK  180  A    between atoms: _428  and  _429
REMARK  181  A    between atoms: _432  and  _434
REMARK  182  A    between atoms: _434  and  _435
REMARK  183  A    between atoms: _437  and  _439
REMARK  184  A    between atoms: _439  and  _440
REMARK  185  A    between atoms: _442  and  _444
REMARK  186  A    between atoms: _444  and  _445
REMARK  187  A    between atoms: _444  and  _447
REMARK  188  A    between atoms: _447  and  _448
REMARK  189  A    between atoms: _451  and  _453
REMARK  190  A    between atoms: _453  and  _454
REMARK  191  A    between atoms: _456  and  _458
REMARK  192  A    between atoms: _458  and  _459
REMARK  193  A    between atoms: _461  and  _463
REMARK  194  A    between atoms: _463  and  _464
REMARK  195  A    between atoms: _463  and  _466
REMARK  196  A    between atoms: _466  and  _467
REMARK  197  A    between atoms: _473  and  _475
REMARK  198  A    between atoms: _475  and  _476
REMARK  199  A    between atoms: _475  and  _478
REMARK  200  A    between atoms: _478  and  _479
REMARK  201  A    between atoms: _482  and  _484
REMARK  202  A    between atoms: _484  and  _485
REMARK  203  A    between atoms: _484  and  _487
REMARK  204  A    between atoms: _490  and  _492
REMARK  205  A    between atoms: _492  and  _493
REMARK  206  A    between atoms: _492  and  _495
REMARK  207  A    between atoms: _495  and  _496
REMARK  208  A    between atoms: _500  and  _501
REMARK  209  A    between atoms: _506  and  _508
REMARK  210  A    between atoms: _508  and  _509
REMARK  211  A    between atoms: _508  and  _511
REMARK  212  A    between atoms: _511  and  _512
REMARK  213  A    between atoms: _516  and  _517
REMARK  214  A    between atoms: _522  and  _524
REMARK  215  A    between atoms: _524  and  _525
REMARK  216  A    between atoms: _524  and  _527
REMARK  217  A    between atoms: _530  and  _532
REMARK  218  A    between atoms: _532  and  _533
REMARK  219  A    between atoms: _532  and  _535
REMARK  220  A    between atoms: _535  and  _536
REMARK  221  A    between atoms: _541  and  _543
REMARK  222  A    between atoms: _543  and  _544
REMARK  223  A    between atoms: _543  and  _546
REMARK  224  A    between atoms: _546  and  _547
REMARK  225  A    between atoms: _550  and  _552
REMARK  226  A    between atoms: _552  and  _553
REMARK  227  A    between atoms: _552  and  _555
REMARK  228  A    between atoms: _555  and  _556
REMARK  229  A    between atoms: _559  and  _561
REMARK  230  A    between atoms: _561  and  _562
REMARK  231  A    between atoms: _564  and  _566
REMARK  232  A    between atoms: _566  and  _567
REMARK  233  A    between atoms: _566  and  _569
REMARK  234  A    between atoms: _569  and  _570
REMARK  235  A    between atoms: _570  and  _571
REMARK  236  A    between atoms: _571  and  _572
REMARK  237  A    between atoms: _581  and  _583
REMARK  238  A    between atoms: _583  and  _584
REMARK  239  A    between atoms: _583  and  _586
REMARK  240  A    between atoms: _586  and  _587
REMARK                            x       y       z     vdW  Elec       q    Type
REMARK                         _______ _______ _______ _____ _____    ______ ____
ROOT
ATOM      1  C   GLY A   5      21.513  19.094  17.674  0.00  0.00    +0.243 C 
ATOM      2  N   ILE A   6      20.246  18.862  17.954  0.00  0.00    -0.297 N 
ATOM      3  H   ILE A   6      19.573  19.640  18.103  0.00  0.00    +0.150 HD
ATOM      4  O   GLY A   5      22.370  18.218  17.538  0.00  0.00    -0.273 OA
ENDROOT
BRANCH   1   5
ATOM      5  CA  GLY A   5      21.863  20.532  17.506  0.00  0.00    +0.176 C 
BRANCH   5   8
ATOM      6  C   GLY A   4      23.232  21.940  16.086  0.00  0.00    +0.243 C 
ATOM      7  O   GLY A   4      23.046  22.960  16.697  0.00  0.00    -0.273 OA
ATOM      8  N   GLY A   5      22.784  20.746  16.425  0.00  0.00    -0.295 N 
ATOM      9  H   GLY A   5      23.113  19.921  15.884  0.00  0.00    +0.150 HD
BRANCH   6  10
ATOM     10  CA  GLY A   4      24.151  21.937  14.889  0.00  0.00    +0.176 C 
BRANCH  10  12
ATOM     11  C   ILE A   3      24.702  23.371  13.088  0.00  0.00    +0.241 C 
ATOM     12  N   GLY A   4      24.459  23.223  14.363  0.00  0.00    -0.295 N 
ATOM     13  H   GLY A   4      24.491  24.048  14.996  0.00  0.00    +0.150 HD
ATOM     14  O   ILE A   3      24.585  22.434  12.315  0.00  0.00    -0.273 OA
BRANCH  11  15
ATOM     15  CA  ILE A   3      25.146  24.750  12.615  0.00  0.00    +0.149 C 
BRANCH  15  18
ATOM     16  C   MET A   2      27.215  25.111  11.367  0.00  0.00    +0.241 C 
ATOM     17  O   MET A   2      27.688  25.879  12.193  0.00  0.00    -0.273 OA
ATOM     18  N   ILE A   3      26.010  24.552  11.457  0.00  0.00    -0.297 N 
ATOM     19  H   ILE A   3      25.674  23.954  10.675  0.00  0.00    +0.150 HD
BRANCH  16  20
ATOM     20  CA  MET A   2      28.056  24.739  10.145  0.00  0.00    +0.149 C 
BRANCH  20  22
ATOM     21  C   LYS A   1      28.382  26.432   8.429  0.00  0.00    +0.238 C 
ATOM     22  N   MET A   2      28.655  25.935   9.612  0.00  0.00    -0.297 N 
ATOM     23  H   MET A   2      29.348  26.437  10.203  0.00  0.00    +0.150 HD
ATOM     24  O   LYS A   1      27.712  25.818   7.577  0.00  0.00    -0.274 OA
BRANCH  21  25
ATOM     25  CA  LYS A   1      28.846  27.825   8.051  0.00  0.00    +0.145 C 
BRANCH  25  26
ATOM     26  N   LYS A   1      28.963  27.910   6.604  0.00  0.00    -0.238 NA
ATOM     27  H   LYS A   1      28.317  27.340   6.021  0.00  0.00    +0.142 HD
ENDBRANCH  25  26
BRANCH  25  28
ATOM     28  CB  LYS A   1      27.818  28.849   8.538  0.00  0.00    +0.026 C 
BRANCH  28  29
ATOM     29  CG  LYS A   1      27.672  29.083  10.012  0.00  0.00    -0.000 C 
BRANCH  29  30
ATOM     30  CD  LYS A   1      26.722  30.217  10.303  0.00  0.00    -0.024 C 
BRANCH  30  31
ATOM     31  CE  LYS A   1      26.322  30.433  11.741  0.00  0.00    -0.086 C 
BRANCH  31  32
ATOM     32  NZ  LYS A   1      27.467  30.870  12.584  0.00  0.00    +0.380 N 
ATOM     33  HZ1 LYS A   1      27.143  31.005  13.563  0.00  0.00    -0.089 HD
ATOM     34  HZ2 LYS A   1      28.210  30.143  12.561  0.00  0.00    -0.089 HD
ATOM     35  HZ3 LYS A   1      27.845  31.766  12.215  0.00  0.00    -0.089 HD
ENDBRANCH  31  32
ENDBRANCH  30  31
ENDBRANCH  29  30
ENDBRANCH  28  29
ENDBRANCH  25  28
ENDBRANCH  21  25
ENDBRANCH  20  22
BRANCH  20  36
ATOM     36  CB  MET A   2      29.122  23.773  10.647  0.00  0.00    +0.041 C 
BRANCH  36  37
ATOM     37  CG  MET A   2      30.016  23.146   9.635  0.00  0.00    +0.060 C 
BRANCH  37  38
ATOM     38  SD  MET A   2      29.096  21.976   8.630  0.00  0.00    -0.139 S 
ATOM     39  CE  MET A   2      29.489  20.513   9.643  0.00  0.00    +0.069 C 
ENDBRANCH  37  38
ENDBRANCH  36  37
ENDBRANCH  20  36
ENDBRANCH  16  20
ENDBRANCH  15  18
BRANCH  15  40
ATOM     40  CB  ILE A   3      23.926  25.633  12.376  0.00  0.00    +0.027 C 
ATOM     41  CG2 ILE A   3      24.289  27.091  12.110  0.00  0.00    +0.002 C 
BRANCH  40  42
ATOM     42  CG1 ILE A   3      23.050  25.119  11.232  0.00  0.00    +0.002 C 
ATOM     43  CD1 ILE A   3      21.690  25.769  11.100  0.00  0.00    +0.000 C 
ENDBRANCH  40  42
ENDBRANCH  15  40
ENDBRANCH  11  15
ENDBRANCH  10  12
ENDBRANCH   6  10
ENDBRANCH   5   8
ENDBRANCH   1   5
BRANCH   2  44
ATOM     44  CA  ILE A   6      19.826  17.459  18.046  0.00  0.00    +0.149 C 
BRANCH  44  45
ATOM     45  C   ILE A   6      20.076  16.783  16.719  0.00  0.00    +0.241 C 
ATOM     46  N   GLY A   7      20.754  15.620  16.744  0.00  0.00    -0.295 N 
ATOM     47  H   GLY A   7      21.057  15.246  17.666  0.00  0.00    +0.150 HD
ATOM     48  O   ILE A   6      19.661  17.250  15.652  0.00  0.00    -0.273 OA
BRANCH  46  49
ATOM     49  CA  GLY A   7      21.078  14.875  15.576  0.00  0.00    +0.176 C 
BRANCH  49  50
ATOM     50  C   GLY A   7      22.304  15.338  14.841  0.00  0.00    +0.243 C 
ATOM     51  N   GLY A   8      22.979  16.348  15.358  0.00  0.00    -0.295 N 
ATOM     52  H   GLY A   8      22.592  16.889  16.157  0.00  0.00    +0.150 HD
ATOM     53  O   GLY A   7      22.621  14.795  13.787  0.00  0.00    -0.273 OA
BRANCH  51  54
ATOM     54  CA  GLY A   8      24.285  16.694  14.785  0.00  0.00    +0.176 C 
BRANCH  54  55
ATOM     55  C   GLY A   8      24.219  17.962  13.975  0.00  0.00    +0.243 C 
ATOM     56  O   GLY A   8      23.360  18.806  14.256  0.00  0.00    -0.273 OA
ATOM     57  N   PHE A   9      25.117  18.127  13.017  0.00  0.00    -0.297 N 
ATOM     58  H   PHE A   9      25.683  17.303  12.731  0.00  0.00    +0.150 HD
BRANCH  57  59
ATOM     59  CA  PHE A   9      25.358  19.384  12.344  0.00  0.00    +0.153 C 
BRANCH  59  60
ATOM     60  C   PHE A   9      25.041  19.315  10.857  0.00  0.00    +0.241 C 
ATOM     61  N   ILE A  10      24.705  20.449  10.298  0.00  0.00    -0.298 N 
ATOM     62  H   ILE A  10      24.567  21.279  10.910  0.00  0.00    +0.150 HD
ATOM     63  O   PHE A   9      25.088  18.234  10.262  0.00  0.00    -0.273 OA
BRANCH  61  64
ATOM     64  CA  ILE A  10      24.513  20.610   8.855  0.00  0.00    +0.137 C 
BRANCH  64  65
ATOM     65  CB  ILE A  10      23.021  20.766   8.488  0.00  0.00    +0.026 C 
ATOM     66  CG2 ILE A  10      22.229  19.517   8.869  0.00  0.00    +0.002 C 
BRANCH  65  67
ATOM     67  CG1 ILE A  10      22.358  21.996   9.093  0.00  0.00    +0.002 C 
ATOM     68  CD1 ILE A  10      20.993  22.304   8.500  0.00  0.00    +0.000 C 
ENDBRANCH  65  67
ENDBRANCH  64  65
BRANCH  64  69
ATOM     69  C   ILE A  10      25.323  21.794   8.369  0.00  0.00    +0.227 C 
ATOM     70  O   ILE A  10      25.564  22.746   9.083  0.00  0.00    -0.286 OA
ENDBRANCH  64  69
ENDBRANCH  61  64
ENDBRANCH  59  60
BRANCH  59  71
ATOM     71  CB  PHE A   9      26.832  19.771  12.470  0.00  0.00    +0.055 C 
BRANCH  71  72
ATOM     72  CG  PHE A   9      27.224  20.359  13.803  0.00  0.00    -0.020 A 
ATOM     73  CD2 PHE A   9      27.330  19.529  14.911  0.00  0.00    -0.004 A 
ATOM     74  CE2 PHE A   9      27.646  20.091  16.130  0.00  0.00    -0.000 A 
ATOM     75  CZ  PHE A   9      27.878  21.431  16.232  0.00  0.00    -0.000 A 
ATOM     76  CE1 PHE A   9      27.797  22.299  15.166  0.00  0.00    -0.000 A 
ATOM     77  CD1 PHE A   9      27.476  21.719  13.936  0.00  0.00    -0.004 A 
ENDBRANCH  71  72
ENDBRANCH  59  71
ENDBRANCH  57  59
ENDBRANCH  54  55
ENDBRANCH  51  54
ENDBRANCH  49  50
ENDBRANCH  46  49
ENDBRANCH  44  45
BRANCH  44  78
ATOM     78  CB  ILE A   6      18.347  17.425  18.499  0.00  0.00    +0.027 C 
ATOM     79  CG2 ILE A   6      17.783  16.008  18.342  0.00  0.00    +0.002 C 
BRANCH  78  80
ATOM     80  CG1 ILE A   6      18.016  17.954  19.899  0.00  0.00    +0.002 C 
ATOM     81  CD1 ILE A   6      18.582  17.304  21.076  0.00  0.00    +0.000 C 
ENDBRANCH  78  80
ENDBRANCH  44  78
ENDBRANCH   2  44
TORSDOF 36
REMARK  Name = ../refined-set-2016/3nu4/3nu4_pocket.pdb
REMARK  240 active torsions:
REMARK  status: ('A' for Active; 'I' for Inactive)
REMARK    1  A    between atoms: _1  and  _3
REMARK    2  A    between atoms: _3  and  _4
REMARK    3  A    between atoms: _3  and  _6
REMARK    4  A    between atoms: _6  and  _7
REMARK    5  A    between atoms: _7  and  _8
REMARK    6  A    between atoms: _8  and  _9
REMARK    7  A    between atoms: _18  and  _20
REMARK    8  A    between atoms: _20  and  _21
REMARK    9  A    between atoms: _20  and  _23
REMARK   10  A    between atoms: _23  and  _24
REMARK   11  A    between atoms: _27  and  _29
REMARK   12  A    between atoms: _29  and  _30
REMARK   13  A    between atoms: _29  and  _32
REMARK   14  A    between atoms: _32  and  _33
REMARK   15  A    between atoms: _36  and  _38
REMARK   16  A    between atoms: _38  and  _39
REMARK   17  A    between atoms: _38  and  _41
REMARK   18  A    between atoms: _41  and  _42
REMARK   19  A    between atoms: _45  and  _47
REMARK   20  A    between atoms: _47  and  _48
REMARK   21  A    between atoms: _47  and  _50
REMARK   22  A    between atoms: _50  and  _51
REMARK   23  A    between atoms: _54  and  _56
REMARK   24  A    between atoms: _56  and  _57
REMARK   25  A    between atoms: _59  and  _61
REMARK   26  A    between atoms: _61  and  _62
REMARK   27  A    between atoms: _65  and  _67
REMARK   28  A    between atoms: _67  and  _68
REMARK   29  A    between atoms: _67  and  _70
REMARK   30  A    between atoms: _70  and  _71
REMARK   31  A    between atoms: _74  and  _76
REMARK   32  A    between atoms: _76  and  _77
REMARK   33  A    between atoms: _76  and  _79
REMARK   34  A    between atoms: _79  and  _80
REMARK   35  A    between atoms: _83  and  _85
REMARK   36  A    between atoms: _85  and  _86
REMARK   37  A    between atoms: _85  and  _88
REMARK   38  A    between atoms: _88  and  _89
REMARK   39  A    between atoms: _92  and  _94
REMARK   40  A    between atoms: _94  and  _95
REMARK   41  A    between atoms: _94  and  _97
REMARK   42  A    between atoms: _97  and  _98
REMARK   43  A    between atoms: _101  and  _103
REMARK   44  A    between atoms: _103  and  _104
REMARK   45  A    between atoms: _103  and  _106
REMARK   46  A    between atoms: _106  and  _107
REMARK   47  A    between atoms: _107  and  _108
REMARK   48  A    between atoms: _108  and  _109
REMARK   49  A    between atoms: _109  and  _110
REMARK   50  A    between atoms: _114  and  _116
REMARK   51  A    between atoms: _116  and  _117
REMARK   52  A    between atoms: _116  and  _119
REMARK   53  A    between atoms: _119  and  _120
REMARK   54  A    between atoms: _120  and  _121
REMARK   55  A    between atoms: _123  and  _125
REMARK   56  A    between atoms: _125  and  _126
REMARK   57  A    between atoms: _125  and  _128
REMARK   58  A    between atoms: _128  and  _129
REMARK   59  A    between atoms: _132  and  _134
REMARK   60  A    between atoms: _134  and  _135
REMARK   61  A    between atoms: _137  and  _139
REMARK   62  A    between atoms: _139  and  _140
REMARK   63  A    between atoms: _142  and  _144
REMARK   64  A    between atoms: _144  and  _145
REMARK   65  A    between atoms: _144  and  _147
REMARK   66  A    between atoms: _147  and  _148
REMARK   67  A    between atoms: _151  and  _153
REMARK   68  A    between atoms: _153  and  _154
REMARK   69  A    between atoms: _156  and  _158
REMARK   70  A    between atoms: _158  and  _159
REMARK   71  A    between atoms: _161  and  _163
REMARK   72  A    between atoms: _163  and  _164
REMARK   73  A    between atoms: _163  and  _166
REMARK   74  A    between atoms: _166  and  _167
REMARK   75  A    between atoms: _173  and  _175
REMARK   76  A    between atoms: _175  and  _176
REMARK   77  A    between atoms: _175  and  _178
REMARK   78  A    between atoms: _178  and  _179
REMARK   79  A    between atoms: _182  and  _184
REMARK   80  A    between atoms: _184  and  _185
REMARK   81  A    between atoms: _184  and  _187
REMARK   82  A    between atoms: _190  and  _192
REMARK   83  A    between atoms: _192  and  _193
REMARK   84  A    between atoms: _192  and  _195
REMARK   85  A    between atoms: _195  and  _196
REMARK   86  A    between atoms: _200  and  _201
REMARK   87  A    between atoms: _206  and  _208
REMARK   88  A    between atoms: _208  and  _209
REMARK   89  A    between atoms: _208  and  _211
REMARK   90  A    between atoms: _211  and  _212
REMARK   91  A    between atoms: _216  and  _217
REMARK   92  A    between atoms: _222  and  _224
REMARK   93  A    between atoms: _224  and  _225
REMARK   94  A    between atoms: _224  and  _227
REMARK   95  A    between atoms: _230  and  _232
REMARK   96  A    between atoms: _232  and  _233
REMARK   97  A    between atoms: _232  and  _235
REMARK   98  A    between atoms: _235  and  _236
REMARK   99  A    between atoms: _241  and  _243
REMARK  100  A    between atoms: _243  and  _244
REMARK  101  A    between atoms: _243  and  _246
REMARK  102  A    between atoms: _246  and  _247
REMARK  103  A    between atoms: _250  and  _252
REMARK  104  A    between atoms: _252  and  _253
REMARK  105  A    between atoms: _252  and  _255
REMARK  106  A    between atoms: _255  and  _256
REMARK  107  A    between atoms: _259  and  _261
REMARK  108  A    between atoms: _261  and  _262
REMARK  109  A    between atoms: _264  and  _266
REMARK  110  A    between atoms: _266  and  _267
REMARK  111  A    between atoms: _266  and  _269
REMARK  112  A    between atoms: _269  and  _270
REMARK  113  A    between atoms: _270  and  _271
REMARK  114  A    between atoms: _271  and  _272
REMARK  115  A    between atoms: _281  and  _283
REMARK  116  A    between atoms: _283  and  _284
REMARK  117  A    between atoms: _283  and  _286
REMARK  118  A    between atoms: _286  and  _287
REMARK  119  A    between atoms: _292  and  _294
REMARK  120  A    between atoms: _294  and  _295
REMARK  121  A    between atoms: _294  and  _297
REMARK  122  A    between atoms: _297  and  _298
REMARK  123  A    between atoms: _298  and  _299
REMARK  124  A    between atoms: _299  and  _300
REMARK  125  A    between atoms: _309  and  _311
REMARK  126  A    between atoms: _311  and  _312
REMARK  127  A    between atoms: _311  and  _314
REMARK  128  A    between atoms: _314  and  _315
REMARK  129  A    between atoms: _318  and  _320
REMARK  130  A    between atoms: _320  and  _321
REMARK  131  A    between atoms: _320  and  _323
REMARK  132  A    between atoms: _323  and  _324
REMARK  133  A    between atoms: _327  and  _329
REMARK  134  A    between atoms: _329  and  _330
REMARK  135  A    between atoms: _329  and  _332
REMARK  136  A    between atoms: _332  and  _333
REMARK  137  A    between atoms: _336  and  _338
REMARK  138  A    between atoms: _338  and  _339
REMARK  139  A    between atoms: _338  and  _341
REMARK  140  A    between atoms: _341  and  _342
REMARK  141  A    between atoms: _345  and  _347
REMARK  142  A    between atoms: _347  and  _348
REMARK  143  A    between atoms: _350  and  _352
REMARK  144  A    between atoms: _352  and  _353
REMARK  145  A    between atoms: _356  and  _358
REMARK  146  A    between atoms: _358  and  _359
REMARK  147  A    between atoms: _358  and  _361
REMARK  148  A    between atoms: _361  and  _362
REMARK  149  A    between atoms: _365  and  _367
REMARK  150  A    between atoms: _367  and  _368
REMARK  151  A    between atoms: _367  and  _370
REMARK  152  A    between atoms: _370  and  _371
REMARK  153  A    between atoms: _374  and  _376
REMARK  154  A    between atoms: _376  and  _377
REMARK  155  A    between atoms: _376  and  _379
REMARK  156  A    between atoms: _379  and  _380
REMARK  157  A    between atoms: _383  and  _385
REMARK  158  A    between atoms: _385  and  _386
REMARK  159  A    between atoms: _385  and  _388
REMARK  160  A    between atoms: _388  and  _389
REMARK  161  A    between atoms: _392  and  _394
REMARK  162  A    between atoms: _394  and  _395
REMARK  163  A    between atoms: _394  and  _397
REMARK  164  A    between atoms: _397  and  _398
REMARK  165  A    between atoms: _401  and  _403
REMARK  166  A    between atoms: _403  and  _404
REMARK  167  A    between atoms: _403  and  _406
REMARK  168  A    between atoms: _406  and  _407
REMARK  169  A    between atoms: _407  and  _408
REMARK  170  A    between atoms: _408  and  _409
REMARK  171  A    between atoms: _409  and  _410
REMARK  172  A    between atoms: _414  and  _416
REMARK  173  A    between atoms: _416  and  _417
REMARK  174  A    between atoms: _416  and  _419
REMARK  175  A    between atoms: _419  and  _420
REMARK  176  A    between atoms: _420  and  _421
REMARK  177  A    between atoms: _423  and  _425
REMARK  178  A    between atoms: _425  and  _426
REMARK  179  A    between atoms: _425  and  _428
REMARK  180  A    between atoms: _428  and  _429
REMARK  181  A    between atoms: _432  and  _434
REMARK  182  A    between atoms: _434  and  _435
REMARK  183  A    between atoms: _437  and  _439
REMARK  184  A    between atoms: _439  and  _440
REMARK  185  A    between atoms: _442  and  _444
REMARK  186  A    between atoms: _444  and  _445
REMARK  187  A    between atoms: _444  and  _447
REMARK  188  A    between atoms: _447  and  _448
REMARK  189  A    between atoms: _451  and  _453
REMARK  190  A    between atoms: _453  and  _454
REMARK  191  A    between atoms: _456  and  _458
REMARK  192  A    between atoms: _458  and  _459
REMARK  193  A    between atoms: _461  and  _463
REMARK  194  A    between atoms: _463  and  _464
REMARK  195  A    between atoms: _463  and  _466
REMARK  196  A    between atoms: _466  and  _467
REMARK  197  A    between atoms: _473  and  _475
REMARK  198  A    between atoms: _475  and  _476
REMARK  199  A    between atoms: _475  and  _478
REMARK  200  A    between atoms: _478  and  _479
REMARK  201  A    between atoms: _482  and  _484
REMARK  202  A    between atoms: _484  and  _485
REMARK  203  A    between atoms: _484  and  _487
REMARK  204  A    between atoms: _490  and  _492
REMARK  205  A    between atoms: _492  and  _493
REMARK  206  A    between atoms: _492  and  _495
REMARK  207  A    between atoms: _495  and  _496
REMARK  208  A    between atoms: _500  and  _501
REMARK  209  A    between atoms: _506  and  _508
REMARK  210  A    between atoms: _508  and  _509
REMARK  211  A    between atoms: _508  and  _511
REMARK  212  A    between atoms: _511  and  _512
REMARK  213  A    between atoms: _516  and  _517
REMARK  214  A    between atoms: _522  and  _524
REMARK  215  A    between atoms: _524  and  _525
REMARK  216  A    between atoms: _524  and  _527
REMARK  217  A    between atoms: _530  and  _532
REMARK  218  A    between atoms: _532  and  _533
REMARK  219  A    between atoms: _532  and  _535
REMARK  220  A    between atoms: _535  and  _536
REMARK  221  A    between atoms: _541  and  _543
REMARK  222  A    between atoms: _543  and  _544
REMARK  223  A    between atoms: _543  and  _546
REMARK  224  A    between atoms: _546  and  _547
REMARK  225  A    between atoms: _550  and  _552
REMARK  226  A    between atoms: _552  and  _553
REMARK  227  A    between atoms: _552  and  _555
REMARK  228  A    between atoms: _555  and  _556
REMARK  229  A    between atoms: _559  and  _561
REMARK  230  A    between atoms: _561  and  _562
REMARK  231  A    between atoms: _564  and  _566
REMARK  232  A    between atoms: _566  and  _567
REMARK  233  A    between atoms: _566  and  _569
REMARK  234  A    between atoms: _569  and  _570
REMARK  235  A    between atoms: _570  and  _571
REMARK  236  A    between atoms: _571  and  _572
REMARK  237  A    between atoms: _581  and  _583
REMARK  238  A    between atoms: _583  and  _584
REMARK  239  A    between atoms: _583  and  _586
REMARK  240  A    between atoms: _586  and  _587
REMARK                            x       y       z     vdW  Elec       q    Type
REMARK                         _______ _______ _______ _____ _____    ______ ____
ROOT
ATOM      1  CA  VAL A   1      24.594  25.948   5.378  0.00  0.00    +0.133 C 
ENDROOT
BRANCH   1   2
ATOM      2  CB  VAL A   1      23.725  26.523   6.498  0.00  0.00    +0.023 C 
ATOM      3  CG2 VAL A   1      24.525  27.323   7.514  0.00  0.00    +0.002 C 
ATOM      4  CG1 VAL A   1      23.011  25.392   7.224  0.00  0.00    +0.002 C 
ENDBRANCH   1   2
BRANCH   1   5
ATOM      5  N   VAL A   1      25.532  24.956   5.920  0.00  0.00    -0.239 NA
ATOM      6  H   VAL A   1      26.345  25.284   6.479  0.00  0.00    +0.142 HD
ENDBRANCH   1   5
BRANCH   1   7
ATOM      7  C   VAL A   1      25.363  27.085   4.695  0.00  0.00    +0.224 C 
ATOM      8  O   VAL A   1      26.603  27.209   4.863  0.00  0.00    -0.287 OA
ENDBRANCH   1   7
TORSDOF 3
REMARK  Name = ../refined-set-2016/3nu4/3nu4_pocket.pdb
REMARK  240 active torsions:
REMARK  status: ('A' for Active; 'I' for Inactive)
REMARK    1  A    between atoms: _1  and  _3
REMARK    2  A    between atoms: _3  and  _4
REMARK    3  A    between atoms: _3  and  _6
REMARK    4  A    between atoms: _6  and  _7
REMARK    5  A    between atoms: _7  and  _8
REMARK    6  A    between atoms: _8  and  _9
REMARK    7  A    between atoms: _18  and  _20
REMARK    8  A    between atoms: _20  and  _21
REMARK    9  A    between atoms: _20  and  _23
REMARK   10  A    between atoms: _23  and  _24
REMARK   11  A    between atoms: _27  and  _29
REMARK   12  A    between atoms: _29  and  _30
REMARK   13  A    between atoms: _29  and  _32
REMARK   14  A    between atoms: _32  and  _33
REMARK   15  A    between atoms: _36  and  _38
REMARK   16  A    between atoms: _38  and  _39
REMARK   17  A    between atoms: _38  and  _41
REMARK   18  A    between atoms: _41  and  _42
REMARK   19  A    between atoms: _45  and  _47
REMARK   20  A    between atoms: _47  and  _48
REMARK   21  A    between atoms: _47  and  _50
REMARK   22  A    between atoms: _50  and  _51
REMARK   23  A    between atoms: _54  and  _56
REMARK   24  A    between atoms: _56  and  _57
REMARK   25  A    between atoms: _59  and  _61
REMARK   26  A    between atoms: _61  and  _62
REMARK   27  A    between atoms: _65  and  _67
REMARK   28  A    between atoms: _67  and  _68
REMARK   29  A    between atoms: _67  and  _70
REMARK   30  A    between atoms: _70  and  _71
REMARK   31  A    between atoms: _74  and  _76
REMARK   32  A    between atoms: _76  and  _77
REMARK   33  A    between atoms: _76  and  _79
REMARK   34  A    between atoms: _79  and  _80
REMARK   35  A    between atoms: _83  and  _85
REMARK   36  A    between atoms: _85  and  _86
REMARK   37  A    between atoms: _85  and  _88
REMARK   38  A    between atoms: _88  and  _89
REMARK   39  A    between atoms: _92  and  _94
REMARK   40  A    between atoms: _94  and  _95
REMARK   41  A    between atoms: _94  and  _97
REMARK   42  A    between atoms: _97  and  _98
REMARK   43  A    between atoms: _101  and  _103
REMARK   44  A    between atoms: _103  and  _104
REMARK   45  A    between atoms: _103  and  _106
REMARK   46  A    between atoms: _106  and  _107
REMARK   47  A    between atoms: _107  and  _108
REMARK   48  A    between atoms: _108  and  _109
REMARK   49  A    between atoms: _109  and  _110
REMARK   50  A    between atoms: _114  and  _116
REMARK   51  A    between atoms: _116  and  _117
REMARK   52  A    between atoms: _116  and  _119
REMARK   53  A    between atoms: _119  and  _120
REMARK   54  A    between atoms: _120  and  _121
REMARK   55  A    between atoms: _123  and  _125
REMARK   56  A    between atoms: _125  and  _126
REMARK   57  A    between atoms: _125  and  _128
REMARK   58  A    between atoms: _128  and  _129
REMARK   59  A    between atoms: _132  and  _134
REMARK   60  A    between atoms: _134  and  _135
REMARK   61  A    between atoms: _137  and  _139
REMARK   62  A    between atoms: _139  and  _140
REMARK   63  A    between atoms: _142  and  _144
REMARK   64  A    between atoms: _144  and  _145
REMARK   65  A    between atoms: _144  and  _147
REMARK   66  A    between atoms: _147  and  _148
REMARK   67  A    between atoms: _151  and  _153
REMARK   68  A    between atoms: _153  and  _154
REMARK   69  A    between atoms: _156  and  _158
REMARK   70  A    between atoms: _158  and  _159
REMARK   71  A    between atoms: _161  and  _163
REMARK   72  A    between atoms: _163  and  _164
REMARK   73  A    between atoms: _163  and  _166
REMARK   74  A    between atoms: _166  and  _167
REMARK   75  A    between atoms: _173  and  _175
REMARK   76  A    between atoms: _175  and  _176
REMARK   77  A    between atoms: _175  and  _178
REMARK   78  A    between atoms: _178  and  _179
REMARK   79  A    between atoms: _182  and  _184
REMARK   80  A    between atoms: _184  and  _185
REMARK   81  A    between atoms: _184  and  _187
REMARK   82  A    between atoms: _190  and  _192
REMARK   83  A    between atoms: _192  and  _193
REMARK   84  A    between atoms: _192  and  _195
REMARK   85  A    between atoms: _195  and  _196
REMARK   86  A    between atoms: _200  and  _201
REMARK   87  A    between atoms: _206  and  _208
REMARK   88  A    between atoms: _208  and  _209
REMARK   89  A    between atoms: _208  and  _211
REMARK   90  A    between atoms: _211  and  _212
REMARK   91  A    between atoms: _216  and  _217
REMARK   92  A    between atoms: _222  and  _224
REMARK   93  A    between atoms: _224  and  _225
REMARK   94  A    between atoms: _224  and  _227
REMARK   95  A    between atoms: _230  and  _232
REMARK   96  A    between atoms: _232  and  _233
REMARK   97  A    between atoms: _232  and  _235
REMARK   98  A    between atoms: _235  and  _236
REMARK   99  A    between atoms: _241  and  _243
REMARK  100  A    between atoms: _243  and  _244
REMARK  101  A    between atoms: _243  and  _246
REMARK  102  A    between atoms: _246  and  _247
REMARK  103  A    between atoms: _250  and  _252
REMARK  104  A    between atoms: _252  and  _253
REMARK  105  A    between atoms: _252  and  _255
REMARK  106  A    between atoms: _255  and  _256
REMARK  107  A    between atoms: _259  and  _261
REMARK  108  A    between atoms: _261  and  _262
REMARK  109  A    between atoms: _264  and  _266
REMARK  110  A    between atoms: _266  and  _267
REMARK  111  A    between atoms: _266  and  _269
REMARK  112  A    between atoms: _269  and  _270
REMARK  113  A    between atoms: _270  and  _271
REMARK  114  A    between atoms: _271  and  _272
REMARK  115  A    between atoms: _281  and  _283
REMARK  116  A    between atoms: _283  and  _284
REMARK  117  A    between atoms: _283  and  _286
REMARK  118  A    between atoms: _286  and  _287
REMARK  119  A    between atoms: _292  and  _294
REMARK  120  A    between atoms: _294  and  _295
REMARK  121  A    between atoms: _294  and  _297
REMARK  122  A    between atoms: _297  and  _298
REMARK  123  A    between atoms: _298  and  _299
REMARK  124  A    between atoms: _299  and  _300
REMARK  125  A    between atoms: _309  and  _311
REMARK  126  A    between atoms: _311  and  _312
REMARK  127  A    between atoms: _311  and  _314
REMARK  128  A    between atoms: _314  and  _315
REMARK  129  A    between atoms: _318  and  _320
REMARK  130  A    between atoms: _320  and  _321
REMARK  131  A    between atoms: _320  and  _323
REMARK  132  A    between atoms: _323  and  _324
REMARK  133  A    between atoms: _327  and  _329
REMARK  134  A    between atoms: _329  and  _330
REMARK  135  A    between atoms: _329  and  _332
REMARK  136  A    between atoms: _332  and  _333
REMARK  137  A    between atoms: _336  and  _338
REMARK  138  A    between atoms: _338  and  _339
REMARK  139  A    between atoms: _338  and  _341
REMARK  140  A    between atoms: _341  and  _342
REMARK  141  A    between atoms: _345  and  _347
REMARK  142  A    between atoms: _347  and  _348
REMARK  143  A    between atoms: _350  and  _352
REMARK  144  A    between atoms: _352  and  _353
REMARK  145  A    between atoms: _356  and  _358
REMARK  146  A    between atoms: _358  and  _359
REMARK  147  A    between atoms: _358  and  _361
REMARK  148  A    between atoms: _361  and  _362
REMARK  149  A    between atoms: _365  and  _367
REMARK  150  A    between atoms: _367  and  _368
REMARK  151  A    between atoms: _367  and  _370
REMARK  152  A    between atoms: _370  and  _371
REMARK  153  A    between atoms: _374  and  _376
REMARK  154  A    between atoms: _376  and  _377
REMARK  155  A    between atoms: _376  and  _379
REMARK  156  A    between atoms: _379  and  _380
REMARK  157  A    between atoms: _383  and  _385
REMARK  158  A    between atoms: _385  and  _386
REMARK  159  A    between atoms: _385  and  _388
REMARK  160  A    between atoms: _388  and  _389
REMARK  161  A    between atoms: _392  and  _394
REMARK  162  A    between atoms: _394  and  _395
REMARK  163  A    between atoms: _394  and  _397
REMARK  164  A    between atoms: _397  and  _398
REMARK  165  A    between atoms: _401  and  _403
REMARK  166  A    between atoms: _403  and  _404
REMARK  167  A    between atoms: _403  and  _406
REMARK  168  A    between atoms: _406  and  _407
REMARK  169  A    between atoms: _407  and  _408
REMARK  170  A    between atoms: _408  and  _409
REMARK  171  A    between atoms: _409  and  _410
REMARK  172  A    between atoms: _414  and  _416
REMARK  173  A    between atoms: _416  and  _417
REMARK  174  A    between atoms: _416  and  _419
REMARK  175  A    between atoms: _419  and  _420
REMARK  176  A    between atoms: _420  and  _421
REMARK  177  A    between atoms: _423  and  _425
REMARK  178  A    between atoms: _425  and  _426
REMARK  179  A    between atoms: _425  and  _428
REMARK  180  A    between atoms: _428  and  _429
REMARK  181  A    between atoms: _432  and  _434
REMARK  182  A    between atoms: _434  and  _435
REMARK  183  A    between atoms: _437  and  _439
REMARK  184  A    between atoms: _439  and  _440
REMARK  185  A    between atoms: _442  and  _444
REMARK  186  A    between atoms: _444  and  _445
REMARK  187  A    between atoms: _444  and  _447
REMARK  188  A    between atoms: _447  and  _448
REMARK  189  A    between atoms: _451  and  _453
REMARK  190  A    between atoms: _453  and  _454
REMARK  191  A    between atoms: _456  and  _458
REMARK  192  A    between atoms: _458  and  _459
REMARK  193  A    between atoms: _461  and  _463
REMARK  194  A    between atoms: _463  and  _464
REMARK  195  A    between atoms: _463  and  _466
REMARK  196  A    between atoms: _466  and  _467
REMARK  197  A    between atoms: _473  and  _475
REMARK  198  A    between atoms: _475  and  _476
REMARK  199  A    between atoms: _475  and  _478
REMARK  200  A    between atoms: _478  and  _479
REMARK  201  A    between atoms: _482  and  _484
REMARK  202  A    between atoms: _484  and  _485
REMARK  203  A    between atoms: _484  and  _487
REMARK  204  A    between atoms: _490  and  _492
REMARK  205  A    between atoms: _492  and  _493
REMARK  206  A    between atoms: _492  and  _495
REMARK  207  A    between atoms: _495  and  _496
REMARK  208  A    between atoms: _500  and  _501
REMARK  209  A    between atoms: _506  and  _508
REMARK  210  A    between atoms: _508  and  _509
REMARK  211  A    between atoms: _508  and  _511
REMARK  212  A    between atoms: _511  and  _512
REMARK  213  A    between atoms: _516  and  _517
REMARK  214  A    between atoms: _522  and  _524
REMARK  215  A    between atoms: _524  and  _525
REMARK  216  A    between atoms: _524  and  _527
REMARK  217  A    between atoms: _530  and  _532
REMARK  218  A    between atoms: _532  and  _533
REMARK  219  A    between atoms: _532  and  _535
REMARK  220  A    between atoms: _535  and  _536
REMARK  221  A    between atoms: _541  and  _543
REMARK  222  A    between atoms: _543  and  _544
REMARK  223  A    between atoms: _543  and  _546
REMARK  224  A    between atoms: _546  and  _547
REMARK  225  A    between atoms: _550  and  _552
REMARK  226  A    between atoms: _552  and  _553
REMARK  227  A    between atoms: _552  and  _555
REMARK  228  A    between atoms: _555  and  _556
REMARK  229  A    between atoms: _559  and  _561
REMARK  230  A    between atoms: _561  and  _562
REMARK  231  A    between atoms: _564  and  _566
REMARK  232  A    between atoms: _566  and  _567
REMARK  233  A    between atoms: _566  and  _569
REMARK  234  A    between atoms: _569  and  _570
REMARK  235  A    between atoms: _570  and  _571
REMARK  236  A    between atoms: _571  and  _572
REMARK  237  A    between atoms: _581  and  _583
REMARK  238  A    between atoms: _583  and  _584
REMARK  239  A    between atoms: _583  and  _586
REMARK  240  A    between atoms: _586  and  _587
REMARK                            x       y       z     vdW  Elec       q    Type
REMARK                         _______ _______ _______ _____ _____    ______ ____
ROOT
ATOM      1  CA  LEU A   1      21.130  30.731   6.698  0.00  0.00    +0.133 C 
ENDROOT
BRANCH   1   2
ATOM      2  N   LEU A   1      20.397  31.949   7.081  0.00  0.00    -0.239 NA
ATOM      3  H   LEU A   1      19.798  31.940   7.931  0.00  0.00    +0.142 HD
ENDBRANCH   1   2
BRANCH   1   4
ATOM      4  C   LEU A   1      20.269  29.908   5.786  0.00  0.00    +0.224 C 
ATOM      5  O   LEU A   1      19.069  29.849   5.977  0.00  0.00    -0.287 OA
ENDBRANCH   1   4
BRANCH   1   6
ATOM      6  CB  LEU A   1      21.536  29.970   7.927  0.00  0.00    +0.025 C 
BRANCH   6   7
ATOM      7  CG  LEU A   1      22.222  30.772   9.047  0.00  0.00    +0.002 C 
ATOM      8  CD2 LEU A   1      22.486  29.868  10.232  0.00  0.00    +0.000 C 
ATOM      9  CD1 LEU A   1      23.498  31.396   8.527  0.00  0.00    +0.000 C 
ENDBRANCH   6   7
ENDBRANCH   1   6
TORSDOF 4
REMARK  Name = ../refined-set-2016/3nu4/3nu4_pocket.pdb
REMARK  240 active torsions:
REMARK  status: ('A' for Active; 'I' for Inactive)
REMARK    1  A    between atoms: _1  and  _3
REMARK    2  A    between atoms: _3  and  _4
REMARK    3  A    between atoms: _3  and  _6
REMARK    4  A    between atoms: _6  and  _7
REMARK    5  A    between atoms: _7  and  _8
REMARK    6  A    between atoms: _8  and  _9
REMARK    7  A    between atoms: _18  and  _20
REMARK    8  A    between atoms: _20  and  _21
REMARK    9  A    between atoms: _20  and  _23
REMARK   10  A    between atoms: _23  and  _24
REMARK   11  A    between atoms: _27  and  _29
REMARK   12  A    between atoms: _29  and  _30
REMARK   13  A    between atoms: _29  and  _32
REMARK   14  A    between atoms: _32  and  _33
REMARK   15  A    between atoms: _36  and  _38
REMARK   16  A    between atoms: _38  and  _39
REMARK   17  A    between atoms: _38  and  _41
REMARK   18  A    between atoms: _41  and  _42
REMARK   19  A    between atoms: _45  and  _47
REMARK   20  A    between atoms: _47  and  _48
REMARK   21  A    between atoms: _47  and  _50
REMARK   22  A    between atoms: _50  and  _51
REMARK   23  A    between atoms: _54  and  _56
REMARK   24  A    between atoms: _56  and  _57
REMARK   25  A    between atoms: _59  and  _61
REMARK   26  A    between atoms: _61  and  _62
REMARK   27  A    between atoms: _65  and  _67
REMARK   28  A    between atoms: _67  and  _68
REMARK   29  A    between atoms: _67  and  _70
REMARK   30  A    between atoms: _70  and  _71
REMARK   31  A    between atoms: _74  and  _76
REMARK   32  A    between atoms: _76  and  _77
REMARK   33  A    between atoms: _76  and  _79
REMARK   34  A    between atoms: _79  and  _80
REMARK   35  A    between atoms: _83  and  _85
REMARK   36  A    between atoms: _85  and  _86
REMARK   37  A    between atoms: _85  and  _88
REMARK   38  A    between atoms: _88  and  _89
REMARK   39  A    between atoms: _92  and  _94
REMARK   40  A    between atoms: _94  and  _95
REMARK   41  A    between atoms: _94  and  _97
REMARK   42  A    between atoms: _97  and  _98
REMARK   43  A    between atoms: _101  and  _103
REMARK   44  A    between atoms: _103  and  _104
REMARK   45  A    between atoms: _103  and  _106
REMARK   46  A    between atoms: _106  and  _107
REMARK   47  A    between atoms: _107  and  _108
REMARK   48  A    between atoms: _108  and  _109
REMARK   49  A    between atoms: _109  and  _110
REMARK   50  A    between atoms: _114  and  _116
REMARK   51  A    between atoms: _116  and  _117
REMARK   52  A    between atoms: _116  and  _119
REMARK   53  A    between atoms: _119  and  _120
REMARK   54  A    between atoms: _120  and  _121
REMARK   55  A    between atoms: _123  and  _125
REMARK   56  A    between atoms: _125  and  _126
REMARK   57  A    between atoms: _125  and  _128
REMARK   58  A    between atoms: _128  and  _129
REMARK   59  A    between atoms: _132  and  _134
REMARK   60  A    between atoms: _134  and  _135
REMARK   61  A    between atoms: _137  and  _139
REMARK   62  A    between atoms: _139  and  _140
REMARK   63  A    between atoms: _142  and  _144
REMARK   64  A    between atoms: _144  and  _145
REMARK   65  A    between atoms: _144  and  _147
REMARK   66  A    between atoms: _147  and  _148
REMARK   67  A    between atoms: _151  and  _153
REMARK   68  A    between atoms: _153  and  _154
REMARK   69  A    between atoms: _156  and  _158
REMARK   70  A    between atoms: _158  and  _159
REMARK   71  A    between atoms: _161  and  _163
REMARK   72  A    between atoms: _163  and  _164
REMARK   73  A    between atoms: _163  and  _166
REMARK   74  A    between atoms: _166  and  _167
REMARK   75  A    between atoms: _173  and  _175
REMARK   76  A    between atoms: _175  and  _176
REMARK   77  A    between atoms: _175  and  _178
REMARK   78  A    between atoms: _178  and  _179
REMARK   79  A    between atoms: _182  and  _184
REMARK   80  A    between atoms: _184  and  _185
REMARK   81  A    between atoms: _184  and  _187
REMARK   82  A    between atoms: _190  and  _192
REMARK   83  A    between atoms: _192  and  _193
REMARK   84  A    between atoms: _192  and  _195
REMARK   85  A    between atoms: _195  and  _196
REMARK   86  A    between atoms: _200  and  _201
REMARK   87  A    between atoms: _206  and  _208
REMARK   88  A    between atoms: _208  and  _209
REMARK   89  A    between atoms: _208  and  _211
REMARK   90  A    between atoms: _211  and  _212
REMARK   91  A    between atoms: _216  and  _217
REMARK   92  A    between atoms: _222  and  _224
REMARK   93  A    between atoms: _224  and  _225
REMARK   94  A    between atoms: _224  and  _227
REMARK   95  A    between atoms: _230  and  _232
REMARK   96  A    between atoms: _232  and  _233
REMARK   97  A    between atoms: _232  and  _235
REMARK   98  A    between atoms: _235  and  _236
REMARK   99  A    between atoms: _241  and  _243
REMARK  100  A    between atoms: _243  and  _244
REMARK  101  A    between atoms: _243  and  _246
REMARK  102  A    between atoms: _246  and  _247
REMARK  103  A    between atoms: _250  and  _252
REMARK  104  A    between atoms: _252  and  _253
REMARK  105  A    between atoms: _252  and  _255
REMARK  106  A    between atoms: _255  and  _256
REMARK  107  A    between atoms: _259  and  _261
REMARK  108  A    between atoms: _261  and  _262
REMARK  109  A    between atoms: _264  and  _266
REMARK  110  A    between atoms: _266  and  _267
REMARK  111  A    between atoms: _266  and  _269
REMARK  112  A    between atoms: _269  and  _270
REMARK  113  A    between atoms: _270  and  _271
REMARK  114  A    between atoms: _271  and  _272
REMARK  115  A    between atoms: _281  and  _283
REMARK  116  A    between atoms: _283  and  _284
REMARK  117  A    between atoms: _283  and  _286
REMARK  118  A    between atoms: _286  and  _287
REMARK  119  A    between atoms: _292  and  _294
REMARK  120  A    between atoms: _294  and  _295
REMARK  121  A    between atoms: _294  and  _297
REMARK  122  A    between atoms: _297  and  _298
REMARK  123  A    between atoms: _298  and  _299
REMARK  124  A    between atoms: _299  and  _300
REMARK  125  A    between atoms: _309  and  _311
REMARK  126  A    between atoms: _311  and  _312
REMARK  127  A    between atoms: _311  and  _314
REMARK  128  A    between atoms: _314  and  _315
REMARK  129  A    between atoms: _318  and  _320
REMARK  130  A    between atoms: _320  and  _321
REMARK  131  A    between atoms: _320  and  _323
REMARK  132  A    between atoms: _323  and  _324
REMARK  133  A    between atoms: _327  and  _329
REMARK  134  A    between atoms: _329  and  _330
REMARK  135  A    between atoms: _329  and  _332
REMARK  136  A    between atoms: _332  and  _333
REMARK  137  A    between atoms: _336  and  _338
REMARK  138  A    between atoms: _338  and  _339
REMARK  139  A    between atoms: _338  and  _341
REMARK  140  A    between atoms: _341  and  _342
REMARK  141  A    between atoms: _345  and  _347
REMARK  142  A    between atoms: _347  and  _348
REMARK  143  A    between atoms: _350  and  _352
REMARK  144  A    between atoms: _352  and  _353
REMARK  145  A    between atoms: _356  and  _358
REMARK  146  A    between atoms: _358  and  _359
REMARK  147  A    between atoms: _358  and  _361
REMARK  148  A    between atoms: _361  and  _362
REMARK  149  A    between atoms: _365  and  _367
REMARK  150  A    between atoms: _367  and  _368
REMARK  151  A    between atoms: _367  and  _370
REMARK  152  A    between atoms: _370  and  _371
REMARK  153  A    between atoms: _374  and  _376
REMARK  154  A    between atoms: _376  and  _377
REMARK  155  A    between atoms: _376  and  _379
REMARK  156  A    between atoms: _379  and  _380
REMARK  157  A    between atoms: _383  and  _385
REMARK  158  A    between atoms: _385  and  _386
REMARK  159  A    between atoms: _385  and  _388
REMARK  160  A    between atoms: _388  and  _389
REMARK  161  A    between atoms: _392  and  _394
REMARK  162  A    between atoms: _394  and  _395
REMARK  163  A    between atoms: _394  and  _397
REMARK  164  A    between atoms: _397  and  _398
REMARK  165  A    between atoms: _401  and  _403
REMARK  166  A    between atoms: _403  and  _404
REMARK  167  A    between atoms: _403  and  _406
REMARK  168  A    between atoms: _406  and  _407
REMARK  169  A    between atoms: _407  and  _408
REMARK  170  A    between atoms: _408  and  _409
REMARK  171  A    between atoms: _409  and  _410
REMARK  172  A    between atoms: _414  and  _416
REMARK  173  A    between atoms: _416  and  _417
REMARK  174  A    between atoms: _416  and  _419
REMARK  175  A    between atoms: _419  and  _420
REMARK  176  A    between atoms: _420  and  _421
REMARK  177  A    between atoms: _423  and  _425
REMARK  178  A    between atoms: _425  and  _426
REMARK  179  A    between atoms: _425  and  _428
REMARK  180  A    between atoms: _428  and  _429
REMARK  181  A    between atoms: _432  and  _434
REMARK  182  A    between atoms: _434  and  _435
REMARK  183  A    between atoms: _437  and  _439
REMARK  184  A    between atoms: _439  and  _440
REMARK  185  A    between atoms: _442  and  _444
REMARK  186  A    between atoms: _444  and  _445
REMARK  187  A    between atoms: _444  and  _447
REMARK  188  A    between atoms: _447  and  _448
REMARK  189  A    between atoms: _451  and  _453
REMARK  190  A    between atoms: _453  and  _454
REMARK  191  A    between atoms: _456  and  _458
REMARK  192  A    between atoms: _458  and  _459
REMARK  193  A    between atoms: _461  and  _463
REMARK  194  A    between atoms: _463  and  _464
REMARK  195  A    between atoms: _463  and  _466
REMARK  196  A    between atoms: _466  and  _467
REMARK  197  A    between atoms: _473  and  _475
REMARK  198  A    between atoms: _475  and  _476
REMARK  199  A    between atoms: _475  and  _478
REMARK  200  A    between atoms: _478  and  _479
REMARK  201  A    between atoms: _482  and  _484
REMARK  202  A    between atoms: _484  and  _485
REMARK  203  A    between atoms: _484  and  _487
REMARK  204  A    between atoms: _490  and  _492
REMARK  205  A    between atoms: _492  and  _493
REMARK  206  A    between atoms: _492  and  _495
REMARK  207  A    between atoms: _495  and  _496
REMARK  208  A    between atoms: _500  and  _501
REMARK  209  A    between atoms: _506  and  _508
REMARK  210  A    between atoms: _508  and  _509
REMARK  211  A    between atoms: _508  and  _511
REMARK  212  A    between atoms: _511  and  _512
REMARK  213  A    between atoms: _516  and  _517
REMARK  214  A    between atoms: _522  and  _524
REMARK  215  A    between atoms: _524  and  _525
REMARK  216  A    between atoms: _524  and  _527
REMARK  217  A    between atoms: _530  and  _532
REMARK  218  A    between atoms: _532  and  _533
REMARK  219  A    between atoms: _532  and  _535
REMARK  220  A    between atoms: _535  and  _536
REMARK  221  A    between atoms: _541  and  _543
REMARK  222  A    between atoms: _543  and  _544
REMARK  223  A    between atoms: _543  and  _546
REMARK  224  A    between atoms: _546  and  _547
REMARK  225  A    between atoms: _550  and  _552
REMARK  226  A    between atoms: _552  and  _553
REMARK  227  A    between atoms: _552  and  _555
REMARK  228  A    between atoms: _555  and  _556
REMARK  229  A    between atoms: _559  and  _561
REMARK  230  A    between atoms: _561  and  _562
REMARK  231  A    between atoms: _564  and  _566
REMARK  232  A    between atoms: _566  and  _567
REMARK  233  A    between atoms: _566  and  _569
REMARK  234  A    between atoms: _569  and  _570
REMARK  235  A    between atoms: _570  and  _571
REMARK  236  A    between atoms: _571  and  _572
REMARK  237  A    between atoms: _581  and  _583
REMARK  238  A    between atoms: _583  and  _584
REMARK  239  A    between atoms: _583  and  _586
REMARK  240  A    between atoms: _586  and  _587
REMARK                            x       y       z     vdW  Elec       q    Type
REMARK                         _______ _______ _______ _____ _____    ______ ____
ROOT
ATOM      1  CA  ILE A   6      13.038  28.448  11.326  0.00  0.00    +0.149 C 
ENDROOT
BRANCH   1   2
ATOM      2  C   ILE A   6      13.372  29.921  11.344  0.00  0.00    +0.241 C 
ATOM      3  N   ILE A   7      12.563  30.731  12.018  0.00  0.00    -0.297 N 
ATOM      4  H   ILE A   7      11.667  30.344  12.378  0.00  0.00    +0.150 HD
ATOM      5  O   ILE A   6      14.392  30.322  10.741  0.00  0.00    -0.273 OA
BRANCH   3   6
ATOM      6  CA  ILE A   7      12.861  32.120  12.278  0.00  0.00    +0.149 C 
BRANCH   6   7
ATOM      7  C   ILE A   7      13.502  32.151  13.680  0.00  0.00    +0.241 C 
ATOM      8  O   ILE A   7      12.868  31.823  14.673  0.00  0.00    -0.273 OA
ATOM      9  N   GLY A   8      14.768  32.488  13.731  0.00  0.00    -0.295 N 
ATOM     10  H   GLY A   8      15.268  32.745  12.856  0.00  0.00    +0.150 HD
BRANCH   9  11
ATOM     11  CA  GLY A   8      15.468  32.506  14.977  0.00  0.00    +0.176 C 
BRANCH  11  12
ATOM     12  C   GLY A   8      15.537  33.884  15.606  0.00  0.00    +0.243 C 
ATOM     13  N   ARG A   9      16.246  33.954  16.707  0.00  0.00    -0.297 N 
ATOM     14  H   ARG A   9      16.796  33.121  16.997  0.00  0.00    +0.150 HD
ATOM     15  O   GLY A   8      15.014  34.877  15.096  0.00  0.00    -0.273 OA
BRANCH  13  16
ATOM     16  CA  ARG A   9      16.297  35.149  17.543  0.00  0.00    +0.149 C 
BRANCH  16  17
ATOM     17  C   ARG A   9      16.794  36.364  16.780  0.00  0.00    +0.241 C 
ATOM     18  O   ARG A   9      16.321  37.483  17.053  0.00  0.00    -0.273 OA
ATOM     19  N   ASN A  10      17.742  36.184  15.860  0.00  0.00    -0.298 N 
ATOM     20  H   ASN A  10      18.119  35.233  15.674  0.00  0.00    +0.150 HD
BRANCH  19  21
ATOM     21  CA  ASN A  10      18.244  37.327  15.120  0.00  0.00    +0.146 C 
BRANCH  21  22
ATOM     22  C   ASN A  10      17.157  38.116  14.409  0.00  0.00    +0.227 C 
ATOM     23  O   ASN A  10      17.341  39.335  14.215  0.00  0.00    -0.286 OA
ENDBRANCH  21  22
BRANCH  21  24
ATOM     24  CB  ASN A  10      19.331  36.915  14.140  0.00  0.00    +0.112 C 
BRANCH  24  25
ATOM     25  CG  ASN A  10      18.833  36.218  12.910  0.00  0.00    +0.222 C 
ATOM     26  OD1 ASN A  10      18.067  35.258  12.964  0.00  0.00    -0.275 OA
ATOM     27  ND2 ASN A  10      19.250  36.779  11.772  0.00  0.00    -0.329 N 
ATOM     28 HD21 ASN A  10      19.900  37.591  11.800  0.00  0.00    +0.145 HD
ATOM     29 HD22 ASN A  10      18.925  36.404  10.858  0.00  0.00    +0.145 HD
ENDBRANCH  24  25
ENDBRANCH  21  24
ENDBRANCH  19  21
ENDBRANCH  16  17
BRANCH  16  30
ATOM     30  CB  ARG A   9      17.162  34.939  18.768  0.00  0.00    +0.033 C 
BRANCH  30  31
ATOM     31  CG  ARG A   9      16.581  33.974  19.760  0.00  0.00    +0.045 C 
BRANCH  31  32
ATOM     32  CD  ARG A   9      17.289  33.939  21.096  0.00  0.00    +0.174 C 
BRANCH  32  33
ATOM     33  NE  ARG A   9      18.691  33.538  20.917  0.00  0.00    -0.265 N 
ATOM     34  CZ  ARG A   9      19.780  34.297  20.868  0.00  0.00    +0.342 C 
ATOM     35  NH2 ARG A   9      19.710  35.614  21.015  0.00  0.00    -0.292 N 
ATOM     36 HH21 ARG A   9      18.789  36.071  21.172  0.00  0.00    +0.255 HD
ATOM     37 HH22 ARG A   9      20.576  36.189  20.973  0.00  0.00    +0.255 HD
ATOM     38  NH1 ARG A   9      20.980  33.758  20.675  0.00  0.00    -0.292 N 
ATOM     39 HH11 ARG A   9      21.823  34.366  20.639  0.00  0.00    +0.255 HD
ATOM     40 HH12 ARG A   9      21.075  32.729  20.560  0.00  0.00    +0.255 HD
ATOM     41  HE  ARG A   9      18.854  32.516  20.814  0.00  0.00    +0.259 HD
ENDBRANCH  32  33
ENDBRANCH  31  32
ENDBRANCH  30  31
ENDBRANCH  16  30
ENDBRANCH  13  16
ENDBRANCH  11  12
ENDBRANCH   9  11
ENDBRANCH   6   7
BRANCH   6  42
ATOM     42  CB  ILE A   7      11.623  33.011  12.224  0.00  0.00    +0.027 C 
ATOM     43  CG2 ILE A   7      12.033  34.445  12.552  0.00  0.00    +0.002 C 
BRANCH  42  44
ATOM     44  CG1 ILE A   7      10.848  32.993  10.911  0.00  0.00    +0.002 C 
ATOM     45  CD1 ILE A   7      11.655  33.352   9.697  0.00  0.00    +0.000 C 
ENDBRANCH  42  44
ENDBRANCH   6  42
ENDBRANCH   3   6
ENDBRANCH   1   2
BRANCH   1  48
ATOM     46  C   ASN A   5      11.955  27.258   9.514  0.00  0.00    +0.241 C 
ATOM     47  O   ASN A   5      10.899  27.100  10.168  0.00  0.00    -0.273 OA
ATOM     48  N   ILE A   6      12.998  27.917   9.970  0.00  0.00    -0.297 N 
ATOM     49  H   ILE A   6      13.817  28.063   9.345  0.00  0.00    +0.150 HD
BRANCH  46  50
ATOM     50  CA  ASN A   5      12.095  26.700   8.107  0.00  0.00    +0.158 C 
BRANCH  50  53
ATOM     51  C   VAL A   4      12.333  24.347   8.773  0.00  0.00    +0.241 C 
ATOM     52  O   VAL A   4      13.461  24.573   9.210  0.00  0.00    -0.273 OA
ATOM     53  N   ASN A   5      11.650  25.305   8.180  0.00  0.00    -0.297 N 
ATOM     54  H   ASN A   5      10.742  25.057   7.738  0.00  0.00    +0.150 HD
BRANCH  51  55
ATOM     55  CA  VAL A   4      11.800  22.942   8.963  0.00  0.00    +0.149 C 
BRANCH  55  57
ATOM     56  C   PRO A   3      12.705  20.800   8.180  0.00  0.00    +0.241 C 
ATOM     57  N   VAL A   4      12.888  21.983   8.724  0.00  0.00    -0.297 N 
ATOM     58  H   VAL A   4      13.853  22.254   9.000  0.00  0.00    +0.150 HD
ATOM     59  O   PRO A   3      11.595  20.377   7.811  0.00  0.00    -0.273 OA
BRANCH  56  65
ATOM     60  C   THR A   2      15.641  21.320   7.278  0.00  0.00    +0.246 C 
ATOM     61  N   PRO A   3      15.182  20.518   8.238  0.00  0.00    -0.272 N 
ATOM     62  CD  PRO A   3      15.828  20.154   9.488  0.00  0.00    +0.094 C 
ATOM     63  CG  PRO A   3      15.107  18.972   9.956  0.00  0.00    +0.024 C 
ATOM     64  CB  PRO A   3      13.794  18.920   9.281  0.00  0.00    +0.031 C 
ATOM     65  CA  PRO A   3      13.900  19.861   8.058  0.00  0.00    +0.152 C 
ATOM     66  O   THR A   2      14.986  21.477   6.244  0.00  0.00    -0.273 OA
BRANCH  60  67
ATOM     67  CA  THR A   2      16.930  22.046   7.506  0.00  0.00    +0.176 C 
BRANCH  67  70
ATOM     68  C   PRO A   1      18.396  21.073   5.841  0.00  0.00    +0.239 C 
ATOM     69  O   PRO A   1      18.458  20.030   6.507  0.00  0.00    -0.274 OA
ATOM     70  N   THR A   2      17.724  22.103   6.281  0.00  0.00    -0.295 N 
ATOM     71  H   THR A   2      17.755  22.992   5.742  0.00  0.00    +0.150 HD
BRANCH  68  73
ATOM     72  N   PRO A   1      19.978  22.362   4.414  0.00  0.00    -0.210 NA
ATOM     73  CA  PRO A   1      19.051  21.229   4.484  0.00  0.00    +0.149 C 
ATOM     74  CB  PRO A   1      19.958  20.042   4.102  0.00  0.00    +0.028 C 
ATOM     75  CG  PRO A   1      21.306  20.436   4.637  0.00  0.00    +0.021 C 
ATOM     76  CD  PRO A   1      21.375  21.945   4.435  0.00  0.00    +0.089 C 
ENDBRANCH  68  73
ENDBRANCH  67  70
BRANCH  67  77
ATOM     77  CB  THR A   2      16.693  23.481   8.044  0.00  0.00    +0.137 C 
ATOM     78  CG2 THR A   2      15.977  24.376   7.066  0.00  0.00    +0.034 C 
BRANCH  77  79
ATOM     79  OG1 THR A   2      15.889  23.298   9.217  0.00  0.00    -0.382 OA
ATOM     80  HG1 THR A   2      15.693  24.180   9.622  0.00  0.00    +0.210 HD
ENDBRANCH  77  79
ENDBRANCH  67  77
ENDBRANCH  60  67
ENDBRANCH  56  65
ENDBRANCH  55  57
BRANCH  55  81
ATOM     81  CB  VAL A   4      11.222  22.755  10.372  0.00  0.00    +0.027 C 
ATOM     82  CG2 VAL A   4      12.241  22.971  11.477  0.00  0.00    +0.002 C 
ATOM     83  CG1 VAL A   4      10.014  23.658  10.585  0.00  0.00    +0.002 C 
ENDBRANCH  55  81
ENDBRANCH  51  55
ENDBRANCH  50  53
BRANCH  50  84
ATOM     84  CB  ASN A   5      11.200  27.466   7.150  0.00  0.00    +0.114 C 
BRANCH  84  85
ATOM     85  CG  ASN A   5      11.331  26.934   5.708  0.00  0.00    +0.222 C 
ATOM     86  OD1 ASN A   5      12.443  26.635   5.249  0.00  0.00    -0.275 OA
ATOM     87  ND2 ASN A   5      10.201  26.845   5.035  0.00  0.00    -0.329 N 
ATOM     88 HD21 ASN A   5       9.304  27.114   5.487  0.00  0.00    +0.145 HD
ATOM     89 HD22 ASN A   5      10.207  26.505   4.052  0.00  0.00    +0.145 HD
ENDBRANCH  84  85
ENDBRANCH  50  84
ENDBRANCH  46  50
ENDBRANCH   1  48
BRANCH   1  90
ATOM     90  CB  ILE A   6      14.122  27.692  12.124  0.00  0.00    +0.027 C 
ATOM     91  CG2 ILE A   6      14.413  28.463  13.404  0.00  0.00    +0.002 C 
BRANCH  90  92
ATOM     92  CG1 ILE A   6      13.746  26.232  12.276  0.00  0.00    +0.002 C 
ATOM     93  CD1 ILE A   6      14.883  25.312  12.660  0.00  0.00    +0.000 C 
ENDBRANCH  90  92
ENDBRANCH   1  90
TORSDOF 33
REMARK  Name = ../refined-set-2016/3nu4/3nu4_pocket.pdb
REMARK  240 active torsions:
REMARK  status: ('A' for Active; 'I' for Inactive)
REMARK    1  A    between atoms: _1  and  _3
REMARK    2  A    between atoms: _3  and  _4
REMARK    3  A    between atoms: _3  and  _6
REMARK    4  A    between atoms: _6  and  _7
REMARK    5  A    between atoms: _7  and  _8
REMARK    6  A    between atoms: _8  and  _9
REMARK    7  A    between atoms: _18  and  _20
REMARK    8  A    between atoms: _20  and  _21
REMARK    9  A    between atoms: _20  and  _23
REMARK   10  A    between atoms: _23  and  _24
REMARK   11  A    between atoms: _27  and  _29
REMARK   12  A    between atoms: _29  and  _30
REMARK   13  A    between atoms: _29  and  _32
REMARK   14  A    between atoms: _32  and  _33
REMARK   15  A    between atoms: _36  and  _38
REMARK   16  A    between atoms: _38  and  _39
REMARK   17  A    between atoms: _38  and  _41
REMARK   18  A    between atoms: _41  and  _42
REMARK   19  A    between atoms: _45  and  _47
REMARK   20  A    between atoms: _47  and  _48
REMARK   21  A    between atoms: _47  and  _50
REMARK   22  A    between atoms: _50  and  _51
REMARK   23  A    between atoms: _54  and  _56
REMARK   24  A    between atoms: _56  and  _57
REMARK   25  A    between atoms: _59  and  _61
REMARK   26  A    between atoms: _61  and  _62
REMARK   27  A    between atoms: _65  and  _67
REMARK   28  A    between atoms: _67  and  _68
REMARK   29  A    between atoms: _67  and  _70
REMARK   30  A    between atoms: _70  and  _71
REMARK   31  A    between atoms: _74  and  _76
REMARK   32  A    between atoms: _76  and  _77
REMARK   33  A    between atoms: _76  and  _79
REMARK   34  A    between atoms: _79  and  _80
REMARK   35  A    between atoms: _83  and  _85
REMARK   36  A    between atoms: _85  and  _86
REMARK   37  A    between atoms: _85  and  _88
REMARK   38  A    between atoms: _88  and  _89
REMARK   39  A    between atoms: _92  and  _94
REMARK   40  A    between atoms: _94  and  _95
REMARK   41  A    between atoms: _94  and  _97
REMARK   42  A    between atoms: _97  and  _98
REMARK   43  A    between atoms: _101  and  _103
REMARK   44  A    between atoms: _103  and  _104
REMARK   45  A    between atoms: _103  and  _106
REMARK   46  A    between atoms: _106  and  _107
REMARK   47  A    between atoms: _107  and  _108
REMARK   48  A    between atoms: _108  and  _109
REMARK   49  A    between atoms: _109  and  _110
REMARK   50  A    between atoms: _114  and  _116
REMARK   51  A    between atoms: _116  and  _117
REMARK   52  A    between atoms: _116  and  _119
REMARK   53  A    between atoms: _119  and  _120
REMARK   54  A    between atoms: _120  and  _121
REMARK   55  A    between atoms: _123  and  _125
REMARK   56  A    between atoms: _125  and  _126
REMARK   57  A    between atoms: _125  and  _128
REMARK   58  A    between atoms: _128  and  _129
REMARK   59  A    between atoms: _132  and  _134
REMARK   60  A    between atoms: _134  and  _135
REMARK   61  A    between atoms: _137  and  _139
REMARK   62  A    between atoms: _139  and  _140
REMARK   63  A    between atoms: _142  and  _144
REMARK   64  A    between atoms: _144  and  _145
REMARK   65  A    between atoms: _144  and  _147
REMARK   66  A    between atoms: _147  and  _148
REMARK   67  A    between atoms: _151  and  _153
REMARK   68  A    between atoms: _153  and  _154
REMARK   69  A    between atoms: _156  and  _158
REMARK   70  A    between atoms: _158  and  _159
REMARK   71  A    between atoms: _161  and  _163
REMARK   72  A    between atoms: _163  and  _164
REMARK   73  A    between atoms: _163  and  _166
REMARK   74  A    between atoms: _166  and  _167
REMARK   75  A    between atoms: _173  and  _175
REMARK   76  A    between atoms: _175  and  _176
REMARK   77  A    between atoms: _175  and  _178
REMARK   78  A    between atoms: _178  and  _179
REMARK   79  A    between atoms: _182  and  _184
REMARK   80  A    between atoms: _184  and  _185
REMARK   81  A    between atoms: _184  and  _187
REMARK   82  A    between atoms: _190  and  _192
REMARK   83  A    between atoms: _192  and  _193
REMARK   84  A    between atoms: _192  and  _195
REMARK   85  A    between atoms: _195  and  _196
REMARK   86  A    between atoms: _200  and  _201
REMARK   87  A    between atoms: _206  and  _208
REMARK   88  A    between atoms: _208  and  _209
REMARK   89  A    between atoms: _208  and  _211
REMARK   90  A    between atoms: _211  and  _212
REMARK   91  A    between atoms: _216  and  _217
REMARK   92  A    between atoms: _222  and  _224
REMARK   93  A    between atoms: _224  and  _225
REMARK   94  A    between atoms: _224  and  _227
REMARK   95  A    between atoms: _230  and  _232
REMARK   96  A    between atoms: _232  and  _233
REMARK   97  A    between atoms: _232  and  _235
REMARK   98  A    between atoms: _235  and  _236
REMARK   99  A    between atoms: _241  and  _243
REMARK  100  A    between atoms: _243  and  _244
REMARK  101  A    between atoms: _243  and  _246
REMARK  102  A    between atoms: _246  and  _247
REMARK  103  A    between atoms: _250  and  _252
REMARK  104  A    between atoms: _252  and  _253
REMARK  105  A    between atoms: _252  and  _255
REMARK  106  A    between atoms: _255  and  _256
REMARK  107  A    between atoms: _259  and  _261
REMARK  108  A    between atoms: _261  and  _262
REMARK  109  A    between atoms: _264  and  _266
REMARK  110  A    between atoms: _266  and  _267
REMARK  111  A    between atoms: _266  and  _269
REMARK  112  A    between atoms: _269  and  _270
REMARK  113  A    between atoms: _270  and  _271
REMARK  114  A    between atoms: _271  and  _272
REMARK  115  A    between atoms: _281  and  _283
REMARK  116  A    between atoms: _283  and  _284
REMARK  117  A    between atoms: _283  and  _286
REMARK  118  A    between atoms: _286  and  _287
REMARK  119  A    between atoms: _292  and  _294
REMARK  120  A    between atoms: _294  and  _295
REMARK  121  A    between atoms: _294  and  _297
REMARK  122  A    between atoms: _297  and  _298
REMARK  123  A    between atoms: _298  and  _299
REMARK  124  A    between atoms: _299  and  _300
REMARK  125  A    between atoms: _309  and  _311
REMARK  126  A    between atoms: _311  and  _312
REMARK  127  A    between atoms: _311  and  _314
REMARK  128  A    between atoms: _314  and  _315
REMARK  129  A    between atoms: _318  and  _320
REMARK  130  A    between atoms: _320  and  _321
REMARK  131  A    between atoms: _320  and  _323
REMARK  132  A    between atoms: _323  and  _324
REMARK  133  A    between atoms: _327  and  _329
REMARK  134  A    between atoms: _329  and  _330
REMARK  135  A    between atoms: _329  and  _332
REMARK  136  A    between atoms: _332  and  _333
REMARK  137  A    between atoms: _336  and  _338
REMARK  138  A    between atoms: _338  and  _339
REMARK  139  A    between atoms: _338  and  _341
REMARK  140  A    between atoms: _341  and  _342
REMARK  141  A    between atoms: _345  and  _347
REMARK  142  A    between atoms: _347  and  _348
REMARK  143  A    between atoms: _350  and  _352
REMARK  144  A    between atoms: _352  and  _353
REMARK  145  A    between atoms: _356  and  _358
REMARK  146  A    between atoms: _358  and  _359
REMARK  147  A    between atoms: _358  and  _361
REMARK  148  A    between atoms: _361  and  _362
REMARK  149  A    between atoms: _365  and  _367
REMARK  150  A    between atoms: _367  and  _368
REMARK  151  A    between atoms: _367  and  _370
REMARK  152  A    between atoms: _370  and  _371
REMARK  153  A    between atoms: _374  and  _376
REMARK  154  A    between atoms: _376  and  _377
REMARK  155  A    between atoms: _376  and  _379
REMARK  156  A    between atoms: _379  and  _380
REMARK  157  A    between atoms: _383  and  _385
REMARK  158  A    between atoms: _385  and  _386
REMARK  159  A    between atoms: _385  and  _388
REMARK  160  A    between atoms: _388  and  _389
REMARK  161  A    between atoms: _392  and  _394
REMARK  162  A    between atoms: _394  and  _395
REMARK  163  A    between atoms: _394  and  _397
REMARK  164  A    between atoms: _397  and  _398
REMARK  165  A    between atoms: _401  and  _403
REMARK  166  A    between atoms: _403  and  _404
REMARK  167  A    between atoms: _403  and  _406
REMARK  168  A    between atoms: _406  and  _407
REMARK  169  A    between atoms: _407  and  _408
REMARK  170  A    between atoms: _408  and  _409
REMARK  171  A    between atoms: _409  and  _410
REMARK  172  A    between atoms: _414  and  _416
REMARK  173  A    between atoms: _416  and  _417
REMARK  174  A    between atoms: _416  and  _419
REMARK  175  A    between atoms: _419  and  _420
REMARK  176  A    between atoms: _420  and  _421
REMARK  177  A    between atoms: _423  and  _425
REMARK  178  A    between atoms: _425  and  _426
REMARK  179  A    between atoms: _425  and  _428
REMARK  180  A    between atoms: _428  and  _429
REMARK  181  A    between atoms: _432  and  _434
REMARK  182  A    between atoms: _434  and  _435
REMARK  183  A    between atoms: _437  and  _439
REMARK  184  A    between atoms: _439  and  _440
REMARK  185  A    between atoms: _442  and  _444
REMARK  186  A    between atoms: _444  and  _445
REMARK  187  A    between atoms: _444  and  _447
REMARK  188  A    between atoms: _447  and  _448
REMARK  189  A    between atoms: _451  and  _453
REMARK  190  A    between atoms: _453  and  _454
REMARK  191  A    between atoms: _456  and  _458
REMARK  192  A    between atoms: _458  and  _459
REMARK  193  A    between atoms: _461  and  _463
REMARK  194  A    between atoms: _463  and  _464
REMARK  195  A    between atoms: _463  and  _466
REMARK  196  A    between atoms: _466  and  _467
REMARK  197  A    between atoms: _473  and  _475
REMARK  198  A    between atoms: _475  and  _476
REMARK  199  A    between atoms: _475  and  _478
REMARK  200  A    between atoms: _478  and  _479
REMARK  201  A    between atoms: _482  and  _484
REMARK  202  A    between atoms: _484  and  _485
REMARK  203  A    between atoms: _484  and  _487
REMARK  204  A    between atoms: _490  and  _492
REMARK  205  A    between atoms: _492  and  _493
REMARK  206  A    between atoms: _492  and  _495
REMARK  207  A    between atoms: _495  and  _496
REMARK  208  A    between atoms: _500  and  _501
REMARK  209  A    between atoms: _506  and  _508
REMARK  210  A    between atoms: _508  and  _509
REMARK  211  A    between atoms: _508  and  _511
REMARK  212  A    between atoms: _511  and  _512
REMARK  213  A    between atoms: _516  and  _517
REMARK  214  A    between atoms: _522  and  _524
REMARK  215  A    between atoms: _524  and  _525
REMARK  216  A    between atoms: _524  and  _527
REMARK  217  A    between atoms: _530  and  _532
REMARK  218  A    between atoms: _532  and  _533
REMARK  219  A    between atoms: _532  and  _535
REMARK  220  A    between atoms: _535  and  _536
REMARK  221  A    between atoms: _541  and  _543
REMARK  222  A    between atoms: _543  and  _544
REMARK  223  A    between atoms: _543  and  _546
REMARK  224  A    between atoms: _546  and  _547
REMARK  225  A    between atoms: _550  and  _552
REMARK  226  A    between atoms: _552  and  _553
REMARK  227  A    between atoms: _552  and  _555
REMARK  228  A    between atoms: _555  and  _556
REMARK  229  A    between atoms: _559  and  _561
REMARK  230  A    between atoms: _561  and  _562
REMARK  231  A    between atoms: _564  and  _566
REMARK  232  A    between atoms: _566  and  _567
REMARK  233  A    between atoms: _566  and  _569
REMARK  234  A    between atoms: _569  and  _570
REMARK  235  A    between atoms: _570  and  _571
REMARK  236  A    between atoms: _571  and  _572
REMARK  237  A    between atoms: _581  and  _583
REMARK  238  A    between atoms: _583  and  _584
REMARK  239  A    between atoms: _583  and  _586
REMARK  240  A    between atoms: _586  and  _587
REMARK                            x       y       z     vdW  Elec       q    Type
REMARK                         _______ _______ _______ _____ _____    ______ ____
ROOT
ATOM      1  NE  ARG A   1      22.912  30.317  22.412  0.00  0.00    -0.265 N 
ATOM      2  CZ  ARG A   1      24.150  29.825  22.334  0.00  0.00    +0.342 C 
ATOM      3  NH2 ARG A   1      24.887  29.436  23.385  0.00  0.00    -0.292 N 
ATOM      4 HH21 ARG A   1      24.499  29.508  24.347  0.00  0.00    +0.255 HD
ATOM      5 HH22 ARG A   1      25.846  29.062  23.238  0.00  0.00    +0.255 HD
ATOM      6  NH1 ARG A   1      24.718  29.697  21.123  0.00  0.00    -0.292 N 
ATOM      7 HH11 ARG A   1      25.682  29.316  21.038  0.00  0.00    +0.255 HD
ATOM      8 HH12 ARG A   1      24.194  29.979  20.270  0.00  0.00    +0.255 HD
ATOM      9  HE  ARG A   1      22.448  30.583  21.520  0.00  0.00    +0.259 HD
ENDROOT
BRANCH   1  10
ATOM     10  CD  ARG A   1      22.156  30.512  23.645  0.00  0.00    +0.174 C 
BRANCH  10  11
ATOM     11  CG  ARG A   1      21.283  31.756  23.466  0.00  0.00    +0.045 C 
BRANCH  11  12
ATOM     12  CB  ARG A   1      20.507  32.039  24.739  0.00  0.00    +0.029 C 
BRANCH  12  13
ATOM     13  CA  ARG A   1      19.500  33.187  24.615  0.00  0.00    +0.133 C 
BRANCH  13  14
ATOM     14  N   ARG A   1      20.236  34.456  24.462  0.00  0.00    -0.239 NA
ATOM     15  H   ARG A   1      21.276  34.465  24.465  0.00  0.00    +0.142 HD
ENDBRANCH  13  14
BRANCH  13  16
ATOM     16  C   ARG A   1      18.594  33.227  25.839  0.00  0.00    +0.224 C 
ATOM     17  O   ARG A   1      19.033  33.710  26.897  0.00  0.00    -0.287 OA
ENDBRANCH  13  16
ENDBRANCH  12  13
ENDBRANCH  11  12
ENDBRANCH  10  11
ENDBRANCH   1  10
TORSDOF 6
REMARK  Name = ../refined-set-2016/3nu4/3nu4_pocket.pdb
REMARK  240 active torsions:
REMARK  status: ('A' for Active; 'I' for Inactive)
REMARK    1  A    between atoms: _1  and  _3
REMARK    2  A    between atoms: _3  and  _4
REMARK    3  A    between atoms: _3  and  _6
REMARK    4  A    between atoms: _6  and  _7
REMARK    5  A    between atoms: _7  and  _8
REMARK    6  A    between atoms: _8  and  _9
REMARK    7  A    between atoms: _18  and  _20
REMARK    8  A    between atoms: _20  and  _21
REMARK    9  A    between atoms: _20  and  _23
REMARK   10  A    between atoms: _23  and  _24
REMARK   11  A    between atoms: _27  and  _29
REMARK   12  A    between atoms: _29  and  _30
REMARK   13  A    between atoms: _29  and  _32
REMARK   14  A    between atoms: _32  and  _33
REMARK   15  A    between atoms: _36  and  _38
REMARK   16  A    between atoms: _38  and  _39
REMARK   17  A    between atoms: _38  and  _41
REMARK   18  A    between atoms: _41  and  _42
REMARK   19  A    between atoms: _45  and  _47
REMARK   20  A    between atoms: _47  and  _48
REMARK   21  A    between atoms: _47  and  _50
REMARK   22  A    between atoms: _50  and  _51
REMARK   23  A    between atoms: _54  and  _56
REMARK   24  A    between atoms: _56  and  _57
REMARK   25  A    between atoms: _59  and  _61
REMARK   26  A    between atoms: _61  and  _62
REMARK   27  A    between atoms: _65  and  _67
REMARK   28  A    between atoms: _67  and  _68
REMARK   29  A    between atoms: _67  and  _70
REMARK   30  A    between atoms: _70  and  _71
REMARK   31  A    between atoms: _74  and  _76
REMARK   32  A    between atoms: _76  and  _77
REMARK   33  A    between atoms: _76  and  _79
REMARK   34  A    between atoms: _79  and  _80
REMARK   35  A    between atoms: _83  and  _85
REMARK   36  A    between atoms: _85  and  _86
REMARK   37  A    between atoms: _85  and  _88
REMARK   38  A    between atoms: _88  and  _89
REMARK   39  A    between atoms: _92  and  _94
REMARK   40  A    between atoms: _94  and  _95
REMARK   41  A    between atoms: _94  and  _97
REMARK   42  A    between atoms: _97  and  _98
REMARK   43  A    between atoms: _101  and  _103
REMARK   44  A    between atoms: _103  and  _104
REMARK   45  A    between atoms: _103  and  _106
REMARK   46  A    between atoms: _106  and  _107
REMARK   47  A    between atoms: _107  and  _108
REMARK   48  A    between atoms: _108  and  _109
REMARK   49  A    between atoms: _109  and  _110
REMARK   50  A    between atoms: _114  and  _116
REMARK   51  A    between atoms: _116  and  _117
REMARK   52  A    between atoms: _116  and  _119
REMARK   53  A    between atoms: _119  and  _120
REMARK   54  A    between atoms: _120  and  _121
REMARK   55  A    between atoms: _123  and  _125
REMARK   56  A    between atoms: _125  and  _126
REMARK   57  A    between atoms: _125  and  _128
REMARK   58  A    between atoms: _128  and  _129
REMARK   59  A    between atoms: _132  and  _134
REMARK   60  A    between atoms: _134  and  _135
REMARK   61  A    between atoms: _137  and  _139
REMARK   62  A    between atoms: _139  and  _140
REMARK   63  A    between atoms: _142  and  _144
REMARK   64  A    between atoms: _144  and  _145
REMARK   65  A    between atoms: _144  and  _147
REMARK   66  A    between atoms: _147  and  _148
REMARK   67  A    between atoms: _151  and  _153
REMARK   68  A    between atoms: _153  and  _154
REMARK   69  A    between atoms: _156  and  _158
REMARK   70  A    between atoms: _158  and  _159
REMARK   71  A    between atoms: _161  and  _163
REMARK   72  A    between atoms: _163  and  _164
REMARK   73  A    between atoms: _163  and  _166
REMARK   74  A    between atoms: _166  and  _167
REMARK   75  A    between atoms: _173  and  _175
REMARK   76  A    between atoms: _175  and  _176
REMARK   77  A    between atoms: _175  and  _178
REMARK   78  A    between atoms: _178  and  _179
REMARK   79  A    between atoms: _182  and  _184
REMARK   80  A    between atoms: _184  and  _185
REMARK   81  A    between atoms: _184  and  _187
REMARK   82  A    between atoms: _190  and  _192
REMARK   83  A    between atoms: _192  and  _193
REMARK   84  A    between atoms: _192  and  _195
REMARK   85  A    between atoms: _195  and  _196
REMARK   86  A    between atoms: _200  and  _201
REMARK   87  A    between atoms: _206  and  _208
REMARK   88  A    between atoms: _208  and  _209
REMARK   89  A    between atoms: _208  and  _211
REMARK   90  A    between atoms: _211  and  _212
REMARK   91  A    between atoms: _216  and  _217
REMARK   92  A    between atoms: _222  and  _224
REMARK   93  A    between atoms: _224  and  _225
REMARK   94  A    between atoms: _224  and  _227
REMARK   95  A    between atoms: _230  and  _232
REMARK   96  A    between atoms: _232  and  _233
REMARK   97  A    between atoms: _232  and  _235
REMARK   98  A    between atoms: _235  and  _236
REMARK   99  A    between atoms: _241  and  _243
REMARK  100  A    between atoms: _243  and  _244
REMARK  101  A    between atoms: _243  and  _246
REMARK  102  A    between atoms: _246  and  _247
REMARK  103  A    between atoms: _250  and  _252
REMARK  104  A    between atoms: _252  and  _253
REMARK  105  A    between atoms: _252  and  _255
REMARK  106  A    between atoms: _255  and  _256
REMARK  107  A    between atoms: _259  and  _261
REMARK  108  A    between atoms: _261  and  _262
REMARK  109  A    between atoms: _264  and  _266
REMARK  110  A    between atoms: _266  and  _267
REMARK  111  A    between atoms: _266  and  _269
REMARK  112  A    between atoms: _269  and  _270
REMARK  113  A    between atoms: _270  and  _271
REMARK  114  A    between atoms: _271  and  _272
REMARK  115  A    between atoms: _281  and  _283
REMARK  116  A    between atoms: _283  and  _284
REMARK  117  A    between atoms: _283  and  _286
REMARK  118  A    between atoms: _286  and  _287
REMARK  119  A    between atoms: _292  and  _294
REMARK  120  A    between atoms: _294  and  _295
REMARK  121  A    between atoms: _294  and  _297
REMARK  122  A    between atoms: _297  and  _298
REMARK  123  A    between atoms: _298  and  _299
REMARK  124  A    between atoms: _299  and  _300
REMARK  125  A    between atoms: _309  and  _311
REMARK  126  A    between atoms: _311  and  _312
REMARK  127  A    between atoms: _311  and  _314
REMARK  128  A    between atoms: _314  and  _315
REMARK  129  A    between atoms: _318  and  _320
REMARK  130  A    between atoms: _320  and  _321
REMARK  131  A    between atoms: _320  and  _323
REMARK  132  A    between atoms: _323  and  _324
REMARK  133  A    between atoms: _327  and  _329
REMARK  134  A    between atoms: _329  and  _330
REMARK  135  A    between atoms: _329  and  _332
REMARK  136  A    between atoms: _332  and  _333
REMARK  137  A    between atoms: _336  and  _338
REMARK  138  A    between atoms: _338  and  _339
REMARK  139  A    between atoms: _338  and  _341
REMARK  140  A    between atoms: _341  and  _342
REMARK  141  A    between atoms: _345  and  _347
REMARK  142  A    between atoms: _347  and  _348
REMARK  143  A    between atoms: _350  and  _352
REMARK  144  A    between atoms: _352  and  _353
REMARK  145  A    between atoms: _356  and  _358
REMARK  146  A    between atoms: _358  and  _359
REMARK  147  A    between atoms: _358  and  _361
REMARK  148  A    between atoms: _361  and  _362
REMARK  149  A    between atoms: _365  and  _367
REMARK  150  A    between atoms: _367  and  _368
REMARK  151  A    between atoms: _367  and  _370
REMARK  152  A    between atoms: _370  and  _371
REMARK  153  A    between atoms: _374  and  _376
REMARK  154  A    between atoms: _376  and  _377
REMARK  155  A    between atoms: _376  and  _379
REMARK  156  A    between atoms: _379  and  _380
REMARK  157  A    between atoms: _383  and  _385
REMARK  158  A    between atoms: _385  and  _386
REMARK  159  A    between atoms: _385  and  _388
REMARK  160  A    between atoms: _388  and  _389
REMARK  161  A    between atoms: _392  and  _394
REMARK  162  A    between atoms: _394  and  _395
REMARK  163  A    between atoms: _394  and  _397
REMARK  164  A    between atoms: _397  and  _398
REMARK  165  A    between atoms: _401  and  _403
REMARK  166  A    between atoms: _403  and  _404
REMARK  167  A    between atoms: _403  and  _406
REMARK  168  A    between atoms: _406  and  _407
REMARK  169  A    between atoms: _407  and  _408
REMARK  170  A    between atoms: _408  and  _409
REMARK  171  A    between atoms: _409  and  _410
REMARK  172  A    between atoms: _414  and  _416
REMARK  173  A    between atoms: _416  and  _417
REMARK  174  A    between atoms: _416  and  _419
REMARK  175  A    between atoms: _419  and  _420
REMARK  176  A    between atoms: _420  and  _421
REMARK  177  A    between atoms: _423  and  _425
REMARK  178  A    between atoms: _425  and  _426
REMARK  179  A    between atoms: _425  and  _428
REMARK  180  A    between atoms: _428  and  _429
REMARK  181  A    between atoms: _432  and  _434
REMARK  182  A    between atoms: _434  and  _435
REMARK  183  A    between atoms: _437  and  _439
REMARK  184  A    between atoms: _439  and  _440
REMARK  185  A    between atoms: _442  and  _444
REMARK  186  A    between atoms: _444  and  _445
REMARK  187  A    between atoms: _444  and  _447
REMARK  188  A    between atoms: _447  and  _448
REMARK  189  A    between atoms: _451  and  _453
REMARK  190  A    between atoms: _453  and  _454
REMARK  191  A    between atoms: _456  and  _458
REMARK  192  A    between atoms: _458  and  _459
REMARK  193  A    between atoms: _461  and  _463
REMARK  194  A    between atoms: _463  and  _464
REMARK  195  A    between atoms: _463  and  _466
REMARK  196  A    between atoms: _466  and  _467
REMARK  197  A    between atoms: _473  and  _475
REMARK  198  A    between atoms: _475  and  _476
REMARK  199  A    between atoms: _475  and  _478
REMARK  200  A    between atoms: _478  and  _479
REMARK  201  A    between atoms: _482  and  _484
REMARK  202  A    between atoms: _484  and  _485
REMARK  203  A    between atoms: _484  and  _487
REMARK  204  A    between atoms: _490  and  _492
REMARK  205  A    between atoms: _492  and  _493
REMARK  206  A    between atoms: _492  and  _495
REMARK  207  A    between atoms: _495  and  _496
REMARK  208  A    between atoms: _500  and  _501
REMARK  209  A    between atoms: _506  and  _508
REMARK  210  A    between atoms: _508  and  _509
REMARK  211  A    between atoms: _508  and  _511
REMARK  212  A    between atoms: _511  and  _512
REMARK  213  A    between atoms: _516  and  _517
REMARK  214  A    between atoms: _522  and  _524
REMARK  215  A    between atoms: _524  and  _525
REMARK  216  A    between atoms: _524  and  _527
REMARK  217  A    between atoms: _530  and  _532
REMARK  218  A    between atoms: _532  and  _533
REMARK  219  A    between atoms: _532  and  _535
REMARK  220  A    between atoms: _535  and  _536
REMARK  221  A    between atoms: _541  and  _543
REMARK  222  A    between atoms: _543  and  _544
REMARK  223  A    between atoms: _543  and  _546
REMARK  224  A    between atoms: _546  and  _547
REMARK  225  A    between atoms: _550  and  _552
REMARK  226  A    between atoms: _552  and  _553
REMARK  227  A    between atoms: _552  and  _555
REMARK  228  A    between atoms: _555  and  _556
REMARK  229  A    between atoms: _559  and  _561
REMARK  230  A    between atoms: _561  and  _562
REMARK  231  A    between atoms: _564  and  _566
REMARK  232  A    between atoms: _566  and  _567
REMARK  233  A    between atoms: _566  and  _569
REMARK  234  A    between atoms: _569  and  _570
REMARK  235  A    between atoms: _570  and  _571
REMARK  236  A    between atoms: _571  and  _572
REMARK  237  A    between atoms: _581  and  _583
REMARK  238  A    between atoms: _583  and  _584
REMARK  239  A    between atoms: _583  and  _586
REMARK  240  A    between atoms: _586  and  _587
REMARK                            x       y       z     vdW  Elec       q    Type
REMARK                         _______ _______ _______ _____ _____    ______ ____
ROOT
ATOM      1  C   ALA A   6       9.770  21.727  20.992  0.00  0.00    +0.241 C 
ATOM      2  O   ALA A   6       9.132  22.276  21.883  0.00  0.00    -0.273 OA
ATOM      3  N   ASP A   7       9.329  20.643  20.335  0.00  0.00    -0.297 N 
ATOM      4  H   ASP A   7       9.863  20.234  19.542  0.00  0.00    +0.150 HD
ENDROOT
BRANCH   1   5
ATOM      5  CA  ALA A   6      11.142  22.229  20.564  0.00  0.00    +0.149 C 
ATOM      6  CB  ALA A   6      12.129  22.198  21.716  0.00  0.00    +0.031 C 
BRANCH   5   8
ATOM      7  C   GLY A   5      11.059  23.886  18.750  0.00  0.00    +0.243 C 
ATOM      8  N   ALA A   6      11.050  23.577  20.032  0.00  0.00    -0.297 N 
ATOM      9  H   ALA A   6      10.971  24.358  20.714  0.00  0.00    +0.150 HD
ATOM     10  O   GLY A   5      11.226  23.048  17.846  0.00  0.00    -0.273 OA
BRANCH   7  11
ATOM     11  CA  GLY A   5      10.837  25.345  18.390  0.00  0.00    +0.176 C 
BRANCH  11  14
ATOM     12  C   THR A   4       9.479  26.472  20.076  0.00  0.00    +0.243 C 
ATOM     13  O   THR A   4       8.427  25.975  19.674  0.00  0.00    -0.273 OA
ATOM     14  N   GLY A   5      10.675  26.249  19.498  0.00  0.00    -0.295 N 
ATOM     15  H   GLY A   5      11.511  26.748  19.865  0.00  0.00    +0.150 HD
BRANCH  12  16
ATOM     16  CA  THR A   4       9.450  27.370  21.312  0.00  0.00    +0.176 C 
BRANCH  16  19
ATOM     17  C   ASP A   3      11.336  26.512  22.546  0.00  0.00    +0.241 C 
ATOM     18  O   ASP A   3      10.818  25.401  22.552  0.00  0.00    -0.273 OA
ATOM     19  N   THR A   4      10.769  27.542  21.926  0.00  0.00    -0.295 N 
ATOM     20  H   THR A   4      11.256  28.460  21.877  0.00  0.00    +0.150 HD
BRANCH  17  21
ATOM     21  CA  ASP A   3      12.665  26.768  23.211  0.00  0.00    +0.160 C 
BRANCH  21  23
ATOM     22  C   LEU A   2      13.103  28.149  25.201  0.00  0.00    +0.241 C 
ATOM     23  N   ASP A   3      12.554  27.070  24.623  0.00  0.00    -0.297 N 
ATOM     24  H   ASP A   3      12.017  26.412  25.224  0.00  0.00    +0.150 HD
ATOM     25  O   LEU A   2      13.526  29.101  24.550  0.00  0.00    -0.273 OA
BRANCH  22  26
ATOM     26  CA  LEU A   2      13.228  28.135  26.696  0.00  0.00    +0.149 C 
BRANCH  26  28
ATOM     27  C   LEU A   1      15.377  27.049  27.041  0.00  0.00    +0.238 C 
ATOM     28  N   LEU A   2      14.668  28.173  27.071  0.00  0.00    -0.297 N 
ATOM     29  H   LEU A   2      15.114  29.069  27.353  0.00  0.00    +0.150 HD
ATOM     30  O   LEU A   1      14.860  25.932  26.802  0.00  0.00    -0.274 OA
BRANCH  27  31
ATOM     31  CA  LEU A   1      16.867  27.129  27.265  0.00  0.00    +0.145 C 
BRANCH  31  32
ATOM     32  N   LEU A   1      17.314  26.256  28.326  0.00  0.00    -0.238 NA
ATOM     33  H   LEU A   1      17.513  25.267  28.075  0.00  0.00    +0.142 HD
ENDBRANCH  31  32
BRANCH  31  34
ATOM     34  CB  LEU A   1      17.628  26.719  25.984  0.00  0.00    +0.026 C 
BRANCH  34  35
ATOM     35  CG  LEU A   1      17.399  27.513  24.733  0.00  0.00    +0.002 C 
ATOM     36  CD2 LEU A   1      17.963  28.912  24.888  0.00  0.00    +0.000 C 
ATOM     37  CD1 LEU A   1      18.027  26.816  23.544  0.00  0.00    +0.000 C 
ENDBRANCH  34  35
ENDBRANCH  31  34
ENDBRANCH  27  31
ENDBRANCH  26  28
BRANCH  26  38
ATOM     38  CB  LEU A   2      12.519  29.343  27.319  0.00  0.00    +0.029 C 
BRANCH  38  39
ATOM     39  CG  LEU A   2      12.651  29.512  28.807  0.00  0.00    +0.002 C 
ATOM     40  CD2 LEU A   2      12.229  28.267  29.555  0.00  0.00    +0.000 C 
ATOM     41  CD1 LEU A   2      11.810  30.699  29.309  0.00  0.00    +0.000 C 
ENDBRANCH  38  39
ENDBRANCH  26  38
ENDBRANCH  22  26
ENDBRANCH  21  23
BRANCH  21  42
ATOM     42  CB  ASP A   3      13.576  25.562  23.089  0.00  0.00    +0.143 C 
BRANCH  42  43
ATOM     43  CG  ASP A   3      14.048  25.217  21.716  0.00  0.00    +0.367 C 
ATOM     44  OD2 ASP A   3      15.004  24.440  21.544  0.00  0.00    -0.246 OA
ATOM     45  OD1 ASP A   3      13.464  25.792  20.756  0.00  0.00    -0.246 OA
ENDBRANCH  42  43
ENDBRANCH  21  42
ENDBRANCH  17  21
ENDBRANCH  16  19
BRANCH  16  46
ATOM     46  CB  THR A   4       8.851  28.724  20.932  0.00  0.00    +0.137 C 
ATOM     47  CG2 THR A   4       8.615  29.595  22.166  0.00  0.00    +0.034 C 
BRANCH  46  48
ATOM     48  OG1 THR A   4       9.738  29.425  20.055  0.00  0.00    -0.382 OA
ATOM     49  HG1 THR A   4       9.880  28.890  19.234  0.00  0.00    +0.210 HD
ENDBRANCH  46  48
ENDBRANCH  16  46
ENDBRANCH  12  16
ENDBRANCH  11  14
ENDBRANCH   7  11
ENDBRANCH   5   8
ENDBRANCH   1   5
BRANCH   3  50
ATOM     50  CA  ASP A   7       8.064  20.063  20.785  0.00  0.00    +0.160 C 
BRANCH  50  51
ATOM     51  C   ASP A   7       8.135  19.550  22.214  0.00  0.00    +0.241 C 
ATOM     52  O   ASP A   7       7.144  19.599  22.939  0.00  0.00    -0.273 OA
ATOM     53  N   ASP A   8       9.271  19.043  22.594  0.00  0.00    -0.297 N 
ATOM     54  H   ASP A   8      10.094  19.177  21.973  0.00  0.00    +0.150 HD
BRANCH  53  55
ATOM     55  CA  ASP A   8       9.468  18.297  23.836  0.00  0.00    +0.160 C 
BRANCH  55  56
ATOM     56  C   ASP A   8      10.579  18.909  24.670  0.00  0.00    +0.241 C 
ATOM     57  N   THR A   9      10.657  18.561  25.915  0.00  0.00    -0.295 N 
ATOM     58  H   THR A   9       9.911  17.925  26.263  0.00  0.00    +0.150 HD
ATOM     59  O   ASP A   8      11.366  19.736  24.177  0.00  0.00    -0.273 OA
BRANCH  57  60
ATOM     60  CA  THR A   9      11.675  18.960  26.890  0.00  0.00    +0.176 C 
BRANCH  60  61
ATOM     61  C   THR A   9      12.704  17.878  26.950  0.00  0.00    +0.243 C 
ATOM     62  O   THR A   9      12.350  16.687  27.151  0.00  0.00    -0.273 OA
ATOM     63  N   ILE A  10      13.956  18.210  26.802  0.00  0.00    -0.297 N 
ATOM     64  H   ILE A  10      14.198  19.211  26.654  0.00  0.00    +0.150 HD
BRANCH  63  65
ATOM     65  CA  ILE A  10      15.024  17.223  26.837  0.00  0.00    +0.149 C 
BRANCH  65  66
ATOM     66  C   ILE A  10      16.168  17.782  27.673  0.00  0.00    +0.241 C 
ATOM     67  N   ILE A  11      16.686  16.949  28.574  0.00  0.00    -0.298 N 
ATOM     68  H   ILE A  11      16.299  15.987  28.654  0.00  0.00    +0.150 HD
ATOM     69  O   ILE A  10      16.585  18.938  27.483  0.00  0.00    -0.273 OA
BRANCH  67  70
ATOM     70  CA  ILE A  11      17.776  17.345  29.448  0.00  0.00    +0.137 C 
BRANCH  70  71
ATOM     71  C   ILE A  11      18.949  16.389  29.266  0.00  0.00    +0.227 C 
ATOM     72  O   ILE A  11      18.851  15.269  28.770  0.00  0.00    -0.286 OA
ENDBRANCH  70  71
BRANCH  70  73
ATOM     73  CB  ILE A  11      17.329  17.382  30.898  0.00  0.00    +0.026 C 
ATOM     74  CG2 ILE A  11      16.137  18.328  31.060  0.00  0.00    +0.002 C 
BRANCH  73  75
ATOM     75  CG1 ILE A  11      17.022  16.002  31.421  0.00  0.00    +0.002 C 
ATOM     76  CD1 ILE A  11      16.730  15.966  32.909  0.00  0.00    +0.000 C 
ENDBRANCH  73  75
ENDBRANCH  70  73
ENDBRANCH  67  70
ENDBRANCH  65  66
BRANCH  65  77
ATOM     77  CB  ILE A  10      15.495  16.828  25.415  0.00  0.00    +0.027 C 
ATOM     78  CG2 ILE A  10      15.865  17.987  24.559  0.00  0.00    +0.002 C 
BRANCH  77  79
ATOM     79  CG1 ILE A  10      16.603  15.758  25.525  0.00  0.00    +0.002 C 
ATOM     80  CD1 ILE A  10      16.805  14.974  24.266  0.00  0.00    +0.000 C 
ENDBRANCH  77  79
ENDBRANCH  65  77
ENDBRANCH  63  65
ENDBRANCH  60  61
BRANCH  60  81
ATOM     81  CB  THR A   9      10.990  19.161  28.229  0.00  0.00    +0.137 C 
ATOM     82  CG2 THR A   9      11.990  19.342  29.371  0.00  0.00    +0.034 C 
BRANCH  81  83
ATOM     83  OG1 THR A   9      10.163  20.337  28.100  0.00  0.00    -0.382 OA
ATOM     84  HG1 THR A   9       9.497  20.194  27.381  0.00  0.00    +0.210 HD
ENDBRANCH  81  83
ENDBRANCH  60  81
ENDBRANCH  57  60
ENDBRANCH  55  56
BRANCH  55  85
ATOM     85  CB  ASP A   8       9.891  16.883  23.477  0.00  0.00    +0.143 C 
BRANCH  85  86
ATOM     86  CG  ASP A   8       9.100  16.198  22.412  0.00  0.00    +0.367 C 
ATOM     87  OD2 ASP A   8       7.897  15.962  22.731  0.00  0.00    -0.246 OA
ATOM     88  OD1 ASP A   8       9.613  15.871  21.286  0.00  0.00    -0.246 OA
ENDBRANCH  85  86
ENDBRANCH  55  85
ENDBRANCH  53  55
ENDBRANCH  50  51
BRANCH  50  89
ATOM     89  CB  ASP A   7       7.678  18.913  19.870  0.00  0.00    +0.143 C 
BRANCH  89  90
ATOM     90  CG  ASP A   7       7.426  19.245  18.423  0.00  0.00    +0.367 C 
ATOM     91  OD2 ASP A   7       7.115  20.400  18.057  0.00  0.00    -0.246 OA
ATOM     92  OD1 ASP A   7       7.537  18.269  17.633  0.00  0.00    -0.246 OA
ENDBRANCH  89  90
ENDBRANCH  50  89
ENDBRANCH   3  50
TORSDOF 40
REMARK  Name = ../refined-set-2016/3nu4/3nu4_pocket.pdb
REMARK  240 active torsions:
REMARK  status: ('A' for Active; 'I' for Inactive)
REMARK    1  A    between atoms: _1  and  _3
REMARK    2  A    between atoms: _3  and  _4
REMARK    3  A    between atoms: _3  and  _6
REMARK    4  A    between atoms: _6  and  _7
REMARK    5  A    between atoms: _7  and  _8
REMARK    6  A    between atoms: _8  and  _9
REMARK    7  A    between atoms: _18  and  _20
REMARK    8  A    between atoms: _20  and  _21
REMARK    9  A    between atoms: _20  and  _23
REMARK   10  A    between atoms: _23  and  _24
REMARK   11  A    between atoms: _27  and  _29
REMARK   12  A    between atoms: _29  and  _30
REMARK   13  A    between atoms: _29  and  _32
REMARK   14  A    between atoms: _32  and  _33
REMARK   15  A    between atoms: _36  and  _38
REMARK   16  A    between atoms: _38  and  _39
REMARK   17  A    between atoms: _38  and  _41
REMARK   18  A    between atoms: _41  and  _42
REMARK   19  A    between atoms: _45  and  _47
REMARK   20  A    between atoms: _47  and  _48
REMARK   21  A    between atoms: _47  and  _50
REMARK   22  A    between atoms: _50  and  _51
REMARK   23  A    between atoms: _54  and  _56
REMARK   24  A    between atoms: _56  and  _57
REMARK   25  A    between atoms: _59  and  _61
REMARK   26  A    between atoms: _61  and  _62
REMARK   27  A    between atoms: _65  and  _67
REMARK   28  A    between atoms: _67  and  _68
REMARK   29  A    between atoms: _67  and  _70
REMARK   30  A    between atoms: _70  and  _71
REMARK   31  A    between atoms: _74  and  _76
REMARK   32  A    between atoms: _76  and  _77
REMARK   33  A    between atoms: _76  and  _79
REMARK   34  A    between atoms: _79  and  _80
REMARK   35  A    between atoms: _83  and  _85
REMARK   36  A    between atoms: _85  and  _86
REMARK   37  A    between atoms: _85  and  _88
REMARK   38  A    between atoms: _88  and  _89
REMARK   39  A    between atoms: _92  and  _94
REMARK   40  A    between atoms: _94  and  _95
REMARK   41  A    between atoms: _94  and  _97
REMARK   42  A    between atoms: _97  and  _98
REMARK   43  A    between atoms: _101  and  _103
REMARK   44  A    between atoms: _103  and  _104
REMARK   45  A    between atoms: _103  and  _106
REMARK   46  A    between atoms: _106  and  _107
REMARK   47  A    between atoms: _107  and  _108
REMARK   48  A    between atoms: _108  and  _109
REMARK   49  A    between atoms: _109  and  _110
REMARK   50  A    between atoms: _114  and  _116
REMARK   51  A    between atoms: _116  and  _117
REMARK   52  A    between atoms: _116  and  _119
REMARK   53  A    between atoms: _119  and  _120
REMARK   54  A    between atoms: _120  and  _121
REMARK   55  A    between atoms: _123  and  _125
REMARK   56  A    between atoms: _125  and  _126
REMARK   57  A    between atoms: _125  and  _128
REMARK   58  A    between atoms: _128  and  _129
REMARK   59  A    between atoms: _132  and  _134
REMARK   60  A    between atoms: _134  and  _135
REMARK   61  A    between atoms: _137  and  _139
REMARK   62  A    between atoms: _139  and  _140
REMARK   63  A    between atoms: _142  and  _144
REMARK   64  A    between atoms: _144  and  _145
REMARK   65  A    between atoms: _144  and  _147
REMARK   66  A    between atoms: _147  and  _148
REMARK   67  A    between atoms: _151  and  _153
REMARK   68  A    between atoms: _153  and  _154
REMARK   69  A    between atoms: _156  and  _158
REMARK   70  A    between atoms: _158  and  _159
REMARK   71  A    between atoms: _161  and  _163
REMARK   72  A    between atoms: _163  and  _164
REMARK   73  A    between atoms: _163  and  _166
REMARK   74  A    between atoms: _166  and  _167
REMARK   75  A    between atoms: _173  and  _175
REMARK   76  A    between atoms: _175  and  _176
REMARK   77  A    between atoms: _175  and  _178
REMARK   78  A    between atoms: _178  and  _179
REMARK   79  A    between atoms: _182  and  _184
REMARK   80  A    between atoms: _184  and  _185
REMARK   81  A    between atoms: _184  and  _187
REMARK   82  A    between atoms: _190  and  _192
REMARK   83  A    between atoms: _192  and  _193
REMARK   84  A    between atoms: _192  and  _195
REMARK   85  A    between atoms: _195  and  _196
REMARK   86  A    between atoms: _200  and  _201
REMARK   87  A    between atoms: _206  and  _208
REMARK   88  A    between atoms: _208  and  _209
REMARK   89  A    between atoms: _208  and  _211
REMARK   90  A    between atoms: _211  and  _212
REMARK   91  A    between atoms: _216  and  _217
REMARK   92  A    between atoms: _222  and  _224
REMARK   93  A    between atoms: _224  and  _225
REMARK   94  A    between atoms: _224  and  _227
REMARK   95  A    between atoms: _230  and  _232
REMARK   96  A    between atoms: _232  and  _233
REMARK   97  A    between atoms: _232  and  _235
REMARK   98  A    between atoms: _235  and  _236
REMARK   99  A    between atoms: _241  and  _243
REMARK  100  A    between atoms: _243  and  _244
REMARK  101  A    between atoms: _243  and  _246
REMARK  102  A    between atoms: _246  and  _247
REMARK  103  A    between atoms: _250  and  _252
REMARK  104  A    between atoms: _252  and  _253
REMARK  105  A    between atoms: _252  and  _255
REMARK  106  A    between atoms: _255  and  _256
REMARK  107  A    between atoms: _259  and  _261
REMARK  108  A    between atoms: _261  and  _262
REMARK  109  A    between atoms: _264  and  _266
REMARK  110  A    between atoms: _266  and  _267
REMARK  111  A    between atoms: _266  and  _269
REMARK  112  A    between atoms: _269  and  _270
REMARK  113  A    between atoms: _270  and  _271
REMARK  114  A    between atoms: _271  and  _272
REMARK  115  A    between atoms: _281  and  _283
REMARK  116  A    between atoms: _283  and  _284
REMARK  117  A    between atoms: _283  and  _286
REMARK  118  A    between atoms: _286  and  _287
REMARK  119  A    between atoms: _292  and  _294
REMARK  120  A    between atoms: _294  and  _295
REMARK  121  A    between atoms: _294  and  _297
REMARK  122  A    between atoms: _297  and  _298
REMARK  123  A    between atoms: _298  and  _299
REMARK  124  A    between atoms: _299  and  _300
REMARK  125  A    between atoms: _309  and  _311
REMARK  126  A    between atoms: _311  and  _312
REMARK  127  A    between atoms: _311  and  _314
REMARK  128  A    between atoms: _314  and  _315
REMARK  129  A    between atoms: _318  and  _320
REMARK  130  A    between atoms: _320  and  _321
REMARK  131  A    between atoms: _320  and  _323
REMARK  132  A    between atoms: _323  and  _324
REMARK  133  A    between atoms: _327  and  _329
REMARK  134  A    between atoms: _329  and  _330
REMARK  135  A    between atoms: _329  and  _332
REMARK  136  A    between atoms: _332  and  _333
REMARK  137  A    between atoms: _336  and  _338
REMARK  138  A    between atoms: _338  and  _339
REMARK  139  A    between atoms: _338  and  _341
REMARK  140  A    between atoms: _341  and  _342
REMARK  141  A    between atoms: _345  and  _347
REMARK  142  A    between atoms: _347  and  _348
REMARK  143  A    between atoms: _350  and  _352
REMARK  144  A    between atoms: _352  and  _353
REMARK  145  A    between atoms: _356  and  _358
REMARK  146  A    between atoms: _358  and  _359
REMARK  147  A    between atoms: _358  and  _361
REMARK  148  A    between atoms: _361  and  _362
REMARK  149  A    between atoms: _365  and  _367
REMARK  150  A    between atoms: _367  and  _368
REMARK  151  A    between atoms: _367  and  _370
REMARK  152  A    between atoms: _370  and  _371
REMARK  153  A    between atoms: _374  and  _376
REMARK  154  A    between atoms: _376  and  _377
REMARK  155  A    between atoms: _376  and  _379
REMARK  156  A    between atoms: _379  and  _380
REMARK  157  A    between atoms: _383  and  _385
REMARK  158  A    between atoms: _385  and  _386
REMARK  159  A    between atoms: _385  and  _388
REMARK  160  A    between atoms: _388  and  _389
REMARK  161  A    between atoms: _392  and  _394
REMARK  162  A    between atoms: _394  and  _395
REMARK  163  A    between atoms: _394  and  _397
REMARK  164  A    between atoms: _397  and  _398
REMARK  165  A    between atoms: _401  and  _403
REMARK  166  A    between atoms: _403  and  _404
REMARK  167  A    between atoms: _403  and  _406
REMARK  168  A    between atoms: _406  and  _407
REMARK  169  A    between atoms: _407  and  _408
REMARK  170  A    between atoms: _408  and  _409
REMARK  171  A    between atoms: _409  and  _410
REMARK  172  A    between atoms: _414  and  _416
REMARK  173  A    between atoms: _416  and  _417
REMARK  174  A    between atoms: _416  and  _419
REMARK  175  A    between atoms: _419  and  _420
REMARK  176  A    between atoms: _420  and  _421
REMARK  177  A    between atoms: _423  and  _425
REMARK  178  A    between atoms: _425  and  _426
REMARK  179  A    between atoms: _425  and  _428
REMARK  180  A    between atoms: _428  and  _429
REMARK  181  A    between atoms: _432  and  _434
REMARK  182  A    between atoms: _434  and  _435
REMARK  183  A    between atoms: _437  and  _439
REMARK  184  A    between atoms: _439  and  _440
REMARK  185  A    between atoms: _442  and  _444
REMARK  186  A    between atoms: _444  and  _445
REMARK  187  A    between atoms: _444  and  _447
REMARK  188  A    between atoms: _447  and  _448
REMARK  189  A    between atoms: _451  and  _453
REMARK  190  A    between atoms: _453  and  _454
REMARK  191  A    between atoms: _456  and  _458
REMARK  192  A    between atoms: _458  and  _459
REMARK  193  A    between atoms: _461  and  _463
REMARK  194  A    between atoms: _463  and  _464
REMARK  195  A    between atoms: _463  and  _466
REMARK  196  A    between atoms: _466  and  _467
REMARK  197  A    between atoms: _473  and  _475
REMARK  198  A    between atoms: _475  and  _476
REMARK  199  A    between atoms: _475  and  _478
REMARK  200  A    between atoms: _478  and  _479
REMARK  201  A    between atoms: _482  and  _484
REMARK  202  A    between atoms: _484  and  _485
REMARK  203  A    between atoms: _484  and  _487
REMARK  204  A    between atoms: _490  and  _492
REMARK  205  A    between atoms: _492  and  _493
REMARK  206  A    between atoms: _492  and  _495
REMARK  207  A    between atoms: _495  and  _496
REMARK  208  A    between atoms: _500  and  _501
REMARK  209  A    between atoms: _506  and  _508
REMARK  210  A    between atoms: _508  and  _509
REMARK  211  A    between atoms: _508  and  _511
REMARK  212  A    between atoms: _511  and  _512
REMARK  213  A    between atoms: _516  and  _517
REMARK  214  A    between atoms: _522  and  _524
REMARK  215  A    between atoms: _524  and  _525
REMARK  216  A    between atoms: _524  and  _527
REMARK  217  A    between atoms: _530  and  _532
REMARK  218  A    between atoms: _532  and  _533
REMARK  219  A    between atoms: _532  and  _535
REMARK  220  A    between atoms: _535  and  _536
REMARK  221  A    between atoms: _541  and  _543
REMARK  222  A    between atoms: _543  and  _544
REMARK  223  A    between atoms: _543  and  _546
REMARK  224  A    between atoms: _546  and  _547
REMARK  225  A    between atoms: _550  and  _552
REMARK  226  A    between atoms: _552  and  _553
REMARK  227  A    between atoms: _552  and  _555
REMARK  228  A    between atoms: _555  and  _556
REMARK  229  A    between atoms: _559  and  _561
REMARK  230  A    between atoms: _561  and  _562
REMARK  231  A    between atoms: _564  and  _566
REMARK  232  A    between atoms: _566  and  _567
REMARK  233  A    between atoms: _566  and  _569
REMARK  234  A    between atoms: _569  and  _570
REMARK  235  A    between atoms: _570  and  _571
REMARK  236  A    between atoms: _571  and  _572
REMARK  237  A    between atoms: _581  and  _583
REMARK  238  A    between atoms: _583  and  _584
REMARK  239  A    between atoms: _583  and  _586
REMARK  240  A    between atoms: _586  and  _587
REMARK                            x       y       z     vdW  Elec       q    Type
REMARK                         _______ _______ _______ _____ _____    ______ ____
ROOT
ATOM      1  C   GLY A   5      16.896  18.355  13.986  0.00  0.00    +0.243 C 
ATOM      2  N   ILE A   6      17.743  19.366  14.075  0.00  0.00    -0.297 N 
ATOM      3  H   ILE A   6      18.012  19.747  15.005  0.00  0.00    +0.150 HD
ATOM      4  O   GLY A   5      16.659  17.774  12.934  0.00  0.00    -0.273 OA
ENDROOT
BRANCH   2   5
ATOM      5  CA  ILE A   6      18.296  19.941  12.856  0.00  0.00    +0.149 C 
BRANCH   5   6
ATOM      6  C   ILE A   6      19.096  18.914  12.065  0.00  0.00    +0.241 C 
ATOM      7  N   GLY A   7      19.762  17.989  12.714  0.00  0.00    -0.295 N 
ATOM      8  H   GLY A   7      19.653  17.942  13.747  0.00  0.00    +0.150 HD
ATOM      9  O   ILE A   6      19.124  18.996  10.838  0.00  0.00    -0.273 OA
BRANCH   7  10
ATOM     10  CA  GLY A   7      20.642  17.027  12.076  0.00  0.00    +0.176 C 
BRANCH  10  11
ATOM     11  C   GLY A   7      19.951  15.735  11.716  0.00  0.00    +0.243 C 
ATOM     12  N   GLY A   8      18.694  15.546  12.120  0.00  0.00    -0.295 N 
ATOM     13  H   GLY A   8      18.166  16.318  12.574  0.00  0.00    +0.150 HD
ATOM     14  O   GLY A   7      20.498  14.847  11.058  0.00  0.00    -0.273 OA
BRANCH  12  15
ATOM     15  CA  GLY A   8      18.068  14.243  11.918  0.00  0.00    +0.176 C 
BRANCH  15  16
ATOM     16  C   GLY A   8      17.421  13.744  13.195  0.00  0.00    +0.243 C 
ATOM     17  O   GLY A   8      17.371  14.498  14.177  0.00  0.00    -0.273 OA
ATOM     18  N   PHE A   9      16.965  12.507  13.198  0.00  0.00    -0.297 N 
ATOM     19  H   PHE A   9      17.115  11.937  12.341  0.00  0.00    +0.150 HD
BRANCH  18  20
ATOM     20  CA  PHE A   9      16.268  11.880  14.311  0.00  0.00    +0.153 C 
BRANCH  20  21
ATOM     21  C   PHE A   9      17.221  11.071  15.190  0.00  0.00    +0.241 C 
ATOM     22  N   ILE A  10      16.963  11.080  16.501  0.00  0.00    -0.298 N 
ATOM     23  H   ILE A  10      16.174  11.671  16.832  0.00  0.00    +0.150 HD
ATOM     24  O   PHE A   9      18.178  10.445  14.701  0.00  0.00    -0.273 OA
BRANCH  22  25
ATOM     25  CA  ILE A  10      17.701  10.327  17.497  0.00  0.00    +0.137 C 
BRANCH  25  26
ATOM     26  C   ILE A  10      16.747   9.661  18.480  0.00  0.00    +0.227 C 
ATOM     27  O   ILE A  10      15.631  10.099  18.701  0.00  0.00    -0.286 OA
ENDBRANCH  25  26
BRANCH  25  28
ATOM     28  CB  ILE A  10      18.693  11.192  18.299  0.00  0.00    +0.026 C 
ATOM     29  CG2 ILE A  10      19.697  11.784  17.315  0.00  0.00    +0.002 C 
BRANCH  28  30
ATOM     30  CG1 ILE A  10      17.987  12.250  19.138  0.00  0.00    +0.002 C 
ATOM     31  CD1 ILE A  10      18.755  12.949  20.210  0.00  0.00    +0.000 C 
ENDBRANCH  28  30
ENDBRANCH  25  28
ENDBRANCH  22  25
ENDBRANCH  20  21
BRANCH  20  32
ATOM     32  CB  PHE A   9      15.161  10.957  13.775  0.00  0.00    +0.055 C 
BRANCH  32  33
ATOM     33  CG  PHE A   9      13.935  11.741  13.314  0.00  0.00    -0.020 A 
ATOM     34  CD2 PHE A   9      12.834  11.813  14.141  0.00  0.00    -0.004 A 
ATOM     35  CE2 PHE A   9      11.702  12.495  13.742  0.00  0.00    -0.000 A 
ATOM     36  CZ  PHE A   9      11.678  13.152  12.532  0.00  0.00    -0.000 A 
ATOM     37  CE1 PHE A   9      12.773  13.108  11.702  0.00  0.00    -0.000 A 
ATOM     38  CD1 PHE A   9      13.890  12.399  12.115  0.00  0.00    -0.004 A 
ENDBRANCH  32  33
ENDBRANCH  20  32
ENDBRANCH  18  20
ENDBRANCH  15  16
ENDBRANCH  12  15
ENDBRANCH  10  11
ENDBRANCH   7  10
ENDBRANCH   5   6
BRANCH   5  39
ATOM     39  CB  ILE A   6      19.119  21.208  13.180  0.00  0.00    +0.027 C 
ATOM     40  CG2 ILE A   6      20.393  20.828  13.900  0.00  0.00    +0.002 C 
BRANCH  39  41
ATOM     41  CG1 ILE A   6      19.363  22.111  11.978  0.00  0.00    +0.002 C 
ATOM     42  CD1 ILE A   6      18.145  22.938  11.650  0.00  0.00    +0.000 C 
ENDBRANCH  39  41
ENDBRANCH   5  39
ENDBRANCH   2   5
BRANCH   1  43
ATOM     43  CA  GLY A   5      16.267  17.955  15.296  0.00  0.00    +0.176 C 
BRANCH  43  46
ATOM     44  C   GLY A   4      14.440  16.457  15.628  0.00  0.00    +0.243 C 
ATOM     45  O   GLY A   4      13.842  17.250  16.342  0.00  0.00    -0.273 OA
ATOM     46  N   GLY A   5      15.663  16.656  15.178  0.00  0.00    -0.295 N 
ATOM     47  H   GLY A   5      16.190  15.875  14.738  0.00  0.00    +0.150 HD
BRANCH  44  48
ATOM     48  CA  GLY A   4      13.868  15.112  15.277  0.00  0.00    +0.176 C 
BRANCH  48  51
ATOM     49  C   ILE A   3      13.713  13.502  17.113  0.00  0.00    +0.241 C 
ATOM     50  O   ILE A   3      14.800  12.994  16.854  0.00  0.00    -0.273 OA
ATOM     51  N   GLY A   4      13.208  14.545  16.426  0.00  0.00    -0.295 N 
ATOM     52  H   GLY A   4      12.306  14.958  16.737  0.00  0.00    +0.150 HD
BRANCH  49  53
ATOM     53  CA  ILE A   3      12.873  12.981  18.269  0.00  0.00    +0.149 C 
BRANCH  53  55
ATOM     54  C   MET A   2      12.014  10.732  18.519  0.00  0.00    +0.241 C 
ATOM     55  N   ILE A   3      13.054  11.562  18.507  0.00  0.00    -0.297 N 
ATOM     56  H   ILE A   3      14.010  11.188  18.671  0.00  0.00    +0.150 HD
ATOM     57  O   MET A   2      10.822  11.047  18.477  0.00  0.00    -0.273 OA
BRANCH  54  58
ATOM     58  CA  MET A   2      12.340   9.241  18.592  0.00  0.00    +0.149 C 
BRANCH  58  61
ATOM     59  C   LYS A   1      12.153   8.383  20.870  0.00  0.00    +0.238 C 
ATOM     60  O   LYS A   1      13.346   8.517  21.196  0.00  0.00    -0.274 OA
ATOM     61  N   MET A   2      11.629   8.646  19.686  0.00  0.00    -0.297 N 
ATOM     62  H   MET A   2      10.629   8.404  19.537  0.00  0.00    +0.150 HD
BRANCH  59  63
ATOM     63  CA  LYS A   1      11.154   7.950  21.914  0.00  0.00    +0.145 C 
BRANCH  63  64
ATOM     64  N   LYS A   1      11.746   6.924  22.765  0.00  0.00    -0.238 NA
ATOM     65  H   LYS A   1      12.762   6.944  22.985  0.00  0.00    +0.142 HD
ENDBRANCH  63  64
BRANCH  63  66
ATOM     66  CB  LYS A   1      10.751   9.162  22.771  0.00  0.00    +0.026 C 
BRANCH  66  67
ATOM     67  CG  LYS A   1      10.030  10.212  21.913  0.00  0.00    -0.000 C 
BRANCH  67  68
ATOM     68  CD  LYS A   1       9.185  11.202  22.644  0.00  0.00    -0.024 C 
BRANCH  68  69
ATOM     69  CE  LYS A   1       8.697  12.217  21.598  0.00  0.00    -0.086 C 
BRANCH  69  70
ATOM     70  NZ  LYS A   1       7.342  11.898  21.152  0.00  0.00    +0.380 N 
ATOM     71  HZ1 LYS A   1       6.696  11.921  21.967  0.00  0.00    -0.089 HD
ATOM     72  HZ2 LYS A   1       7.333  10.949  20.727  0.00  0.00    -0.089 HD
ATOM     73  HZ3 LYS A   1       7.037  12.598  20.446  0.00  0.00    -0.089 HD
ENDBRANCH  69  70
ENDBRANCH  68  69
ENDBRANCH  67  68
ENDBRANCH  66  67
ENDBRANCH  63  66
ENDBRANCH  59  63
ENDBRANCH  58  61
BRANCH  58  74
ATOM     74  CB  MET A   2      11.998   8.580  17.239  0.00  0.00    +0.041 C 
BRANCH  74  75
ATOM     75  CG  MET A   2      12.348   7.118  17.176  0.00  0.00    +0.060 C 
BRANCH  75  76
ATOM     76  SD  MET A   2      14.114   6.817  17.254  0.00  0.00    -0.139 S 
ATOM     77  CE  MET A   2      14.648   7.712  15.784  0.00  0.00    +0.069 C 
ENDBRANCH  75  76
ENDBRANCH  74  75
ENDBRANCH  58  74
ENDBRANCH  54  58
ENDBRANCH  53  55
BRANCH  53  78
ATOM     78  CB  ILE A   3      13.148  13.836  19.534  0.00  0.00    +0.027 C 
ATOM     79  CG2 ILE A   3      12.154  13.470  20.629  0.00  0.00    +0.002 C 
BRANCH  78  80
ATOM     80  CG1 ILE A   3      14.581  13.754  19.999  0.00  0.00    +0.002 C 
ATOM     81  CD1 ILE A   3      14.961  14.736  21.058  0.00  0.00    +0.000 C 
ENDBRANCH  78  80
ENDBRANCH  53  78
ENDBRANCH  49  53
ENDBRANCH  48  51
ENDBRANCH  44  48
ENDBRANCH  43  46
ENDBRANCH   1  43
TORSDOF 36
REMARK  Name = ../refined-set-2016/3nu4/3nu4_pocket.pdb
REMARK  240 active torsions:
REMARK  status: ('A' for Active; 'I' for Inactive)
REMARK    1  A    between atoms: _1  and  _3
REMARK    2  A    between atoms: _3  and  _4
REMARK    3  A    between atoms: _3  and  _6
REMARK    4  A    between atoms: _6  and  _7
REMARK    5  A    between atoms: _7  and  _8
REMARK    6  A    between atoms: _8  and  _9
REMARK    7  A    between atoms: _18  and  _20
REMARK    8  A    between atoms: _20  and  _21
REMARK    9  A    between atoms: _20  and  _23
REMARK   10  A    between atoms: _23  and  _24
REMARK   11  A    between atoms: _27  and  _29
REMARK   12  A    between atoms: _29  and  _30
REMARK   13  A    between atoms: _29  and  _32
REMARK   14  A    between atoms: _32  and  _33
REMARK   15  A    between atoms: _36  and  _38
REMARK   16  A    between atoms: _38  and  _39
REMARK   17  A    between atoms: _38  and  _41
REMARK   18  A    between atoms: _41  and  _42
REMARK   19  A    between atoms: _45  and  _47
REMARK   20  A    between atoms: _47  and  _48
REMARK   21  A    between atoms: _47  and  _50
REMARK   22  A    between atoms: _50  and  _51
REMARK   23  A    between atoms: _54  and  _56
REMARK   24  A    between atoms: _56  and  _57
REMARK   25  A    between atoms: _59  and  _61
REMARK   26  A    between atoms: _61  and  _62
REMARK   27  A    between atoms: _65  and  _67
REMARK   28  A    between atoms: _67  and  _68
REMARK   29  A    between atoms: _67  and  _70
REMARK   30  A    between atoms: _70  and  _71
REMARK   31  A    between atoms: _74  and  _76
REMARK   32  A    between atoms: _76  and  _77
REMARK   33  A    between atoms: _76  and  _79
REMARK   34  A    between atoms: _79  and  _80
REMARK   35  A    between atoms: _83  and  _85
REMARK   36  A    between atoms: _85  and  _86
REMARK   37  A    between atoms: _85  and  _88
REMARK   38  A    between atoms: _88  and  _89
REMARK   39  A    between atoms: _92  and  _94
REMARK   40  A    between atoms: _94  and  _95
REMARK   41  A    between atoms: _94  and  _97
REMARK   42  A    between atoms: _97  and  _98
REMARK   43  A    between atoms: _101  and  _103
REMARK   44  A    between atoms: _103  and  _104
REMARK   45  A    between atoms: _103  and  _106
REMARK   46  A    between atoms: _106  and  _107
REMARK   47  A    between atoms: _107  and  _108
REMARK   48  A    between atoms: _108  and  _109
REMARK   49  A    between atoms: _109  and  _110
REMARK   50  A    between atoms: _114  and  _116
REMARK   51  A    between atoms: _116  and  _117
REMARK   52  A    between atoms: _116  and  _119
REMARK   53  A    between atoms: _119  and  _120
REMARK   54  A    between atoms: _120  and  _121
REMARK   55  A    between atoms: _123  and  _125
REMARK   56  A    between atoms: _125  and  _126
REMARK   57  A    between atoms: _125  and  _128
REMARK   58  A    between atoms: _128  and  _129
REMARK   59  A    between atoms: _132  and  _134
REMARK   60  A    between atoms: _134  and  _135
REMARK   61  A    between atoms: _137  and  _139
REMARK   62  A    between atoms: _139  and  _140
REMARK   63  A    between atoms: _142  and  _144
REMARK   64  A    between atoms: _144  and  _145
REMARK   65  A    between atoms: _144  and  _147
REMARK   66  A    between atoms: _147  and  _148
REMARK   67  A    between atoms: _151  and  _153
REMARK   68  A    between atoms: _153  and  _154
REMARK   69  A    between atoms: _156  and  _158
REMARK   70  A    between atoms: _158  and  _159
REMARK   71  A    between atoms: _161  and  _163
REMARK   72  A    between atoms: _163  and  _164
REMARK   73  A    between atoms: _163  and  _166
REMARK   74  A    between atoms: _166  and  _167
REMARK   75  A    between atoms: _173  and  _175
REMARK   76  A    between atoms: _175  and  _176
REMARK   77  A    between atoms: _175  and  _178
REMARK   78  A    between atoms: _178  and  _179
REMARK   79  A    between atoms: _182  and  _184
REMARK   80  A    between atoms: _184  and  _185
REMARK   81  A    between atoms: _184  and  _187
REMARK   82  A    between atoms: _190  and  _192
REMARK   83  A    between atoms: _192  and  _193
REMARK   84  A    between atoms: _192  and  _195
REMARK   85  A    between atoms: _195  and  _196
REMARK   86  A    between atoms: _200  and  _201
REMARK   87  A    between atoms: _206  and  _208
REMARK   88  A    between atoms: _208  and  _209
REMARK   89  A    between atoms: _208  and  _211
REMARK   90  A    between atoms: _211  and  _212
REMARK   91  A    between atoms: _216  and  _217
REMARK   92  A    between atoms: _222  and  _224
REMARK   93  A    between atoms: _224  and  _225
REMARK   94  A    between atoms: _224  and  _227
REMARK   95  A    between atoms: _230  and  _232
REMARK   96  A    between atoms: _232  and  _233
REMARK   97  A    between atoms: _232  and  _235
REMARK   98  A    between atoms: _235  and  _236
REMARK   99  A    between atoms: _241  and  _243
REMARK  100  A    between atoms: _243  and  _244
REMARK  101  A    between atoms: _243  and  _246
REMARK  102  A    between atoms: _246  and  _247
REMARK  103  A    between atoms: _250  and  _252
REMARK  104  A    between atoms: _252  and  _253
REMARK  105  A    between atoms: _252  and  _255
REMARK  106  A    between atoms: _255  and  _256
REMARK  107  A    between atoms: _259  and  _261
REMARK  108  A    between atoms: _261  and  _262
REMARK  109  A    between atoms: _264  and  _266
REMARK  110  A    between atoms: _266  and  _267
REMARK  111  A    between atoms: _266  and  _269
REMARK  112  A    between atoms: _269  and  _270
REMARK  113  A    between atoms: _270  and  _271
REMARK  114  A    between atoms: _271  and  _272
REMARK  115  A    between atoms: _281  and  _283
REMARK  116  A    between atoms: _283  and  _284
REMARK  117  A    between atoms: _283  and  _286
REMARK  118  A    between atoms: _286  and  _287
REMARK  119  A    between atoms: _292  and  _294
REMARK  120  A    between atoms: _294  and  _295
REMARK  121  A    between atoms: _294  and  _297
REMARK  122  A    between atoms: _297  and  _298
REMARK  123  A    between atoms: _298  and  _299
REMARK  124  A    between atoms: _299  and  _300
REMARK  125  A    between atoms: _309  and  _311
REMARK  126  A    between atoms: _311  and  _312
REMARK  127  A    between atoms: _311  and  _314
REMARK  128  A    between atoms: _314  and  _315
REMARK  129  A    between atoms: _318  and  _320
REMARK  130  A    between atoms: _320  and  _321
REMARK  131  A    between atoms: _320  and  _323
REMARK  132  A    between atoms: _323  and  _324
REMARK  133  A    between atoms: _327  and  _329
REMARK  134  A    between atoms: _329  and  _330
REMARK  135  A    between atoms: _329  and  _332
REMARK  136  A    between atoms: _332  and  _333
REMARK  137  A    between atoms: _336  and  _338
REMARK  138  A    between atoms: _338  and  _339
REMARK  139  A    between atoms: _338  and  _341
REMARK  140  A    between atoms: _341  and  _342
REMARK  141  A    between atoms: _345  and  _347
REMARK  142  A    between atoms: _347  and  _348
REMARK  143  A    between atoms: _350  and  _352
REMARK  144  A    between atoms: _352  and  _353
REMARK  145  A    between atoms: _356  and  _358
REMARK  146  A    between atoms: _358  and  _359
REMARK  147  A    between atoms: _358  and  _361
REMARK  148  A    between atoms: _361  and  _362
REMARK  149  A    between atoms: _365  and  _367
REMARK  150  A    between atoms: _367  and  _368
REMARK  151  A    between atoms: _367  and  _370
REMARK  152  A    between atoms: _370  and  _371
REMARK  153  A    between atoms: _374  and  _376
REMARK  154  A    between atoms: _376  and  _377
REMARK  155  A    between atoms: _376  and  _379
REMARK  156  A    between atoms: _379  and  _380
REMARK  157  A    between atoms: _383  and  _385
REMARK  158  A    between atoms: _385  and  _386
REMARK  159  A    between atoms: _385  and  _388
REMARK  160  A    between atoms: _388  and  _389
REMARK  161  A    between atoms: _392  and  _394
REMARK  162  A    between atoms: _394  and  _395
REMARK  163  A    between atoms: _394  and  _397
REMARK  164  A    between atoms: _397  and  _398
REMARK  165  A    between atoms: _401  and  _403
REMARK  166  A    between atoms: _403  and  _404
REMARK  167  A    between atoms: _403  and  _406
REMARK  168  A    between atoms: _406  and  _407
REMARK  169  A    between atoms: _407  and  _408
REMARK  170  A    between atoms: _408  and  _409
REMARK  171  A    between atoms: _409  and  _410
REMARK  172  A    between atoms: _414  and  _416
REMARK  173  A    between atoms: _416  and  _417
REMARK  174  A    between atoms: _416  and  _419
REMARK  175  A    between atoms: _419  and  _420
REMARK  176  A    between atoms: _420  and  _421
REMARK  177  A    between atoms: _423  and  _425
REMARK  178  A    between atoms: _425  and  _426
REMARK  179  A    between atoms: _425  and  _428
REMARK  180  A    between atoms: _428  and  _429
REMARK  181  A    between atoms: _432  and  _434
REMARK  182  A    between atoms: _434  and  _435
REMARK  183  A    between atoms: _437  and  _439
REMARK  184  A    between atoms: _439  and  _440
REMARK  185  A    between atoms: _442  and  _444
REMARK  186  A    between atoms: _444  and  _445
REMARK  187  A    between atoms: _444  and  _447
REMARK  188  A    between atoms: _447  and  _448
REMARK  189  A    between atoms: _451  and  _453
REMARK  190  A    between atoms: _453  and  _454
REMARK  191  A    between atoms: _456  and  _458
REMARK  192  A    between atoms: _458  and  _459
REMARK  193  A    between atoms: _461  and  _463
REMARK  194  A    between atoms: _463  and  _464
REMARK  195  A    between atoms: _463  and  _466
REMARK  196  A    between atoms: _466  and  _467
REMARK  197  A    between atoms: _473  and  _475
REMARK  198  A    between atoms: _475  and  _476
REMARK  199  A    between atoms: _475  and  _478
REMARK  200  A    between atoms: _478  and  _479
REMARK  201  A    between atoms: _482  and  _484
REMARK  202  A    between atoms: _484  and  _485
REMARK  203  A    between atoms: _484  and  _487
REMARK  204  A    between atoms: _490  and  _492
REMARK  205  A    between atoms: _492  and  _493
REMARK  206  A    between atoms: _492  and  _495
REMARK  207  A    between atoms: _495  and  _496
REMARK  208  A    between atoms: _500  and  _501
REMARK  209  A    between atoms: _506  and  _508
REMARK  210  A    between atoms: _508  and  _509
REMARK  211  A    between atoms: _508  and  _511
REMARK  212  A    between atoms: _511  and  _512
REMARK  213  A    between atoms: _516  and  _517
REMARK  214  A    between atoms: _522  and  _524
REMARK  215  A    between atoms: _524  and  _525
REMARK  216  A    between atoms: _524  and  _527
REMARK  217  A    between atoms: _530  and  _532
REMARK  218  A    between atoms: _532  and  _533
REMARK  219  A    between atoms: _532  and  _535
REMARK  220  A    between atoms: _535  and  _536
REMARK  221  A    between atoms: _541  and  _543
REMARK  222  A    between atoms: _543  and  _544
REMARK  223  A    between atoms: _543  and  _546
REMARK  224  A    between atoms: _546  and  _547
REMARK  225  A    between atoms: _550  and  _552
REMARK  226  A    between atoms: _552  and  _553
REMARK  227  A    between atoms: _552  and  _555
REMARK  228  A    between atoms: _555  and  _556
REMARK  229  A    between atoms: _559  and  _561
REMARK  230  A    between atoms: _561  and  _562
REMARK  231  A    between atoms: _564  and  _566
REMARK  232  A    between atoms: _566  and  _567
REMARK  233  A    between atoms: _566  and  _569
REMARK  234  A    between atoms: _569  and  _570
REMARK  235  A    between atoms: _570  and  _571
REMARK  236  A    between atoms: _571  and  _572
REMARK  237  A    between atoms: _581  and  _583
REMARK  238  A    between atoms: _583  and  _584
REMARK  239  A    between atoms: _583  and  _586
REMARK  240  A    between atoms: _586  and  _587
REMARK                            x       y       z     vdW  Elec       q    Type
REMARK                         _______ _______ _______ _____ _____    ______ ____
ROOT
ATOM      1  CA  VAL A   1      16.107   9.166  23.671  0.00  0.00    +0.133 C 
ENDROOT
BRANCH   1   2
ATOM      2  CB  VAL A   1      15.845  10.690  23.783  0.00  0.00    +0.023 C 
ATOM      3  CG2 VAL A   1      14.365  10.923  23.536  0.00  0.00    +0.002 C 
ATOM      4  CG1 VAL A   1      16.758  11.432  22.837  0.00  0.00    +0.002 C 
ENDBRANCH   1   2
BRANCH   1   5
ATOM      5  N   VAL A   1      15.885   8.657  22.314  0.00  0.00    -0.239 NA
ATOM      6  H   VAL A   1      14.906   8.503  22.000  0.00  0.00    +0.142 HD
ENDBRANCH   1   5
BRANCH   1   7
ATOM      7  C   VAL A   1      15.262   8.404  24.706  0.00  0.00    +0.224 C 
ATOM      8  O   VAL A   1      14.462   7.580  24.357  0.00  0.00    -0.287 OA
ENDBRANCH   1   7
TORSDOF 3
REMARK  Name = ../refined-set-2016/3nu4/3nu4_pocket.pdb
REMARK  240 active torsions:
REMARK  status: ('A' for Active; 'I' for Inactive)
REMARK    1  A    between atoms: _1  and  _3
REMARK    2  A    between atoms: _3  and  _4
REMARK    3  A    between atoms: _3  and  _6
REMARK    4  A    between atoms: _6  and  _7
REMARK    5  A    between atoms: _7  and  _8
REMARK    6  A    between atoms: _8  and  _9
REMARK    7  A    between atoms: _18  and  _20
REMARK    8  A    between atoms: _20  and  _21
REMARK    9  A    between atoms: _20  and  _23
REMARK   10  A    between atoms: _23  and  _24
REMARK   11  A    between atoms: _27  and  _29
REMARK   12  A    between atoms: _29  and  _30
REMARK   13  A    between atoms: _29  and  _32
REMARK   14  A    between atoms: _32  and  _33
REMARK   15  A    between atoms: _36  and  _38
REMARK   16  A    between atoms: _38  and  _39
REMARK   17  A    between atoms: _38  and  _41
REMARK   18  A    between atoms: _41  and  _42
REMARK   19  A    between atoms: _45  and  _47
REMARK   20  A    between atoms: _47  and  _48
REMARK   21  A    between atoms: _47  and  _50
REMARK   22  A    between atoms: _50  and  _51
REMARK   23  A    between atoms: _54  and  _56
REMARK   24  A    between atoms: _56  and  _57
REMARK   25  A    between atoms: _59  and  _61
REMARK   26  A    between atoms: _61  and  _62
REMARK   27  A    between atoms: _65  and  _67
REMARK   28  A    between atoms: _67  and  _68
REMARK   29  A    between atoms: _67  and  _70
REMARK   30  A    between atoms: _70  and  _71
REMARK   31  A    between atoms: _74  and  _76
REMARK   32  A    between atoms: _76  and  _77
REMARK   33  A    between atoms: _76  and  _79
REMARK   34  A    between atoms: _79  and  _80
REMARK   35  A    between atoms: _83  and  _85
REMARK   36  A    between atoms: _85  and  _86
REMARK   37  A    between atoms: _85  and  _88
REMARK   38  A    between atoms: _88  and  _89
REMARK   39  A    between atoms: _92  and  _94
REMARK   40  A    between atoms: _94  and  _95
REMARK   41  A    between atoms: _94  and  _97
REMARK   42  A    between atoms: _97  and  _98
REMARK   43  A    between atoms: _101  and  _103
REMARK   44  A    between atoms: _103  and  _104
REMARK   45  A    between atoms: _103  and  _106
REMARK   46  A    between atoms: _106  and  _107
REMARK   47  A    between atoms: _107  and  _108
REMARK   48  A    between atoms: _108  and  _109
REMARK   49  A    between atoms: _109  and  _110
REMARK   50  A    between atoms: _114  and  _116
REMARK   51  A    between atoms: _116  and  _117
REMARK   52  A    between atoms: _116  and  _119
REMARK   53  A    between atoms: _119  and  _120
REMARK   54  A    between atoms: _120  and  _121
REMARK   55  A    between atoms: _123  and  _125
REMARK   56  A    between atoms: _125  and  _126
REMARK   57  A    between atoms: _125  and  _128
REMARK   58  A    between atoms: _128  and  _129
REMARK   59  A    between atoms: _132  and  _134
REMARK   60  A    between atoms: _134  and  _135
REMARK   61  A    between atoms: _137  and  _139
REMARK   62  A    between atoms: _139  and  _140
REMARK   63  A    between atoms: _142  and  _144
REMARK   64  A    between atoms: _144  and  _145
REMARK   65  A    between atoms: _144  and  _147
REMARK   66  A    between atoms: _147  and  _148
REMARK   67  A    between atoms: _151  and  _153
REMARK   68  A    between atoms: _153  and  _154
REMARK   69  A    between atoms: _156  and  _158
REMARK   70  A    between atoms: _158  and  _159
REMARK   71  A    between atoms: _161  and  _163
REMARK   72  A    between atoms: _163  and  _164
REMARK   73  A    between atoms: _163  and  _166
REMARK   74  A    between atoms: _166  and  _167
REMARK   75  A    between atoms: _173  and  _175
REMARK   76  A    between atoms: _175  and  _176
REMARK   77  A    between atoms: _175  and  _178
REMARK   78  A    between atoms: _178  and  _179
REMARK   79  A    between atoms: _182  and  _184
REMARK   80  A    between atoms: _184  and  _185
REMARK   81  A    between atoms: _184  and  _187
REMARK   82  A    between atoms: _190  and  _192
REMARK   83  A    between atoms: _192  and  _193
REMARK   84  A    between atoms: _192  and  _195
REMARK   85  A    between atoms: _195  and  _196
REMARK   86  A    between atoms: _200  and  _201
REMARK   87  A    between atoms: _206  and  _208
REMARK   88  A    between atoms: _208  and  _209
REMARK   89  A    between atoms: _208  and  _211
REMARK   90  A    between atoms: _211  and  _212
REMARK   91  A    between atoms: _216  and  _217
REMARK   92  A    between atoms: _222  and  _224
REMARK   93  A    between atoms: _224  and  _225
REMARK   94  A    between atoms: _224  and  _227
REMARK   95  A    between atoms: _230  and  _232
REMARK   96  A    between atoms: _232  and  _233
REMARK   97  A    between atoms: _232  and  _235
REMARK   98  A    between atoms: _235  and  _236
REMARK   99  A    between atoms: _241  and  _243
REMARK  100  A    between atoms: _243  and  _244
REMARK  101  A    between atoms: _243  and  _246
REMARK  102  A    between atoms: _246  and  _247
REMARK  103  A    between atoms: _250  and  _252
REMARK  104  A    between atoms: _252  and  _253
REMARK  105  A    between atoms: _252  and  _255
REMARK  106  A    between atoms: _255  and  _256
REMARK  107  A    between atoms: _259  and  _261
REMARK  108  A    between atoms: _261  and  _262
REMARK  109  A    between atoms: _264  and  _266
REMARK  110  A    between atoms: _266  and  _267
REMARK  111  A    between atoms: _266  and  _269
REMARK  112  A    between atoms: _269  and  _270
REMARK  113  A    between atoms: _270  and  _271
REMARK  114  A    between atoms: _271  and  _272
REMARK  115  A    between atoms: _281  and  _283
REMARK  116  A    between atoms: _283  and  _284
REMARK  117  A    between atoms: _283  and  _286
REMARK  118  A    between atoms: _286  and  _287
REMARK  119  A    between atoms: _292  and  _294
REMARK  120  A    between atoms: _294  and  _295
REMARK  121  A    between atoms: _294  and  _297
REMARK  122  A    between atoms: _297  and  _298
REMARK  123  A    between atoms: _298  and  _299
REMARK  124  A    between atoms: _299  and  _300
REMARK  125  A    between atoms: _309  and  _311
REMARK  126  A    between atoms: _311  and  _312
REMARK  127  A    between atoms: _311  and  _314
REMARK  128  A    between atoms: _314  and  _315
REMARK  129  A    between atoms: _318  and  _320
REMARK  130  A    between atoms: _320  and  _321
REMARK  131  A    between atoms: _320  and  _323
REMARK  132  A    between atoms: _323  and  _324
REMARK  133  A    between atoms: _327  and  _329
REMARK  134  A    between atoms: _329  and  _330
REMARK  135  A    between atoms: _329  and  _332
REMARK  136  A    between atoms: _332  and  _333
REMARK  137  A    between atoms: _336  and  _338
REMARK  138  A    between atoms: _338  and  _339
REMARK  139  A    between atoms: _338  and  _341
REMARK  140  A    between atoms: _341  and  _342
REMARK  141  A    between atoms: _345  and  _347
REMARK  142  A    between atoms: _347  and  _348
REMARK  143  A    between atoms: _350  and  _352
REMARK  144  A    between atoms: _352  and  _353
REMARK  145  A    between atoms: _356  and  _358
REMARK  146  A    between atoms: _358  and  _359
REMARK  147  A    between atoms: _358  and  _361
REMARK  148  A    between atoms: _361  and  _362
REMARK  149  A    between atoms: _365  and  _367
REMARK  150  A    between atoms: _367  and  _368
REMARK  151  A    between atoms: _367  and  _370
REMARK  152  A    between atoms: _370  and  _371
REMARK  153  A    between atoms: _374  and  _376
REMARK  154  A    between atoms: _376  and  _377
REMARK  155  A    between atoms: _376  and  _379
REMARK  156  A    between atoms: _379  and  _380
REMARK  157  A    between atoms: _383  and  _385
REMARK  158  A    between atoms: _385  and  _386
REMARK  159  A    between atoms: _385  and  _388
REMARK  160  A    between atoms: _388  and  _389
REMARK  161  A    between atoms: _392  and  _394
REMARK  162  A    between atoms: _394  and  _395
REMARK  163  A    between atoms: _394  and  _397
REMARK  164  A    between atoms: _397  and  _398
REMARK  165  A    between atoms: _401  and  _403
REMARK  166  A    between atoms: _403  and  _404
REMARK  167  A    between atoms: _403  and  _406
REMARK  168  A    between atoms: _406  and  _407
REMARK  169  A    between atoms: _407  and  _408
REMARK  170  A    between atoms: _408  and  _409
REMARK  171  A    between atoms: _409  and  _410
REMARK  172  A    between atoms: _414  and  _416
REMARK  173  A    between atoms: _416  and  _417
REMARK  174  A    between atoms: _416  and  _419
REMARK  175  A    between atoms: _419  and  _420
REMARK  176  A    between atoms: _420  and  _421
REMARK  177  A    between atoms: _423  and  _425
REMARK  178  A    between atoms: _425  and  _426
REMARK  179  A    between atoms: _425  and  _428
REMARK  180  A    between atoms: _428  and  _429
REMARK  181  A    between atoms: _432  and  _434
REMARK  182  A    between atoms: _434  and  _435
REMARK  183  A    between atoms: _437  and  _439
REMARK  184  A    between atoms: _439  and  _440
REMARK  185  A    between atoms: _442  and  _444
REMARK  186  A    between atoms: _444  and  _445
REMARK  187  A    between atoms: _444  and  _447
REMARK  188  A    between atoms: _447  and  _448
REMARK  189  A    between atoms: _451  and  _453
REMARK  190  A    between atoms: _453  and  _454
REMARK  191  A    between atoms: _456  and  _458
REMARK  192  A    between atoms: _458  and  _459
REMARK  193  A    between atoms: _461  and  _463
REMARK  194  A    between atoms: _463  and  _464
REMARK  195  A    between atoms: _463  and  _466
REMARK  196  A    between atoms: _466  and  _467
REMARK  197  A    between atoms: _473  and  _475
REMARK  198  A    between atoms: _475  and  _476
REMARK  199  A    between atoms: _475  and  _478
REMARK  200  A    between atoms: _478  and  _479
REMARK  201  A    between atoms: _482  and  _484
REMARK  202  A    between atoms: _484  and  _485
REMARK  203  A    between atoms: _484  and  _487
REMARK  204  A    between atoms: _490  and  _492
REMARK  205  A    between atoms: _492  and  _493
REMARK  206  A    between atoms: _492  and  _495
REMARK  207  A    between atoms: _495  and  _496
REMARK  208  A    between atoms: _500  and  _501
REMARK  209  A    between atoms: _506  and  _508
REMARK  210  A    between atoms: _508  and  _509
REMARK  211  A    between atoms: _508  and  _511
REMARK  212  A    between atoms: _511  and  _512
REMARK  213  A    between atoms: _516  and  _517
REMARK  214  A    between atoms: _522  and  _524
REMARK  215  A    between atoms: _524  and  _525
REMARK  216  A    between atoms: _524  and  _527
REMARK  217  A    between atoms: _530  and  _532
REMARK  218  A    between atoms: _532  and  _533
REMARK  219  A    between atoms: _532  and  _535
REMARK  220  A    between atoms: _535  and  _536
REMARK  221  A    between atoms: _541  and  _543
REMARK  222  A    between atoms: _543  and  _544
REMARK  223  A    between atoms: _543  and  _546
REMARK  224  A    between atoms: _546  and  _547
REMARK  225  A    between atoms: _550  and  _552
REMARK  226  A    between atoms: _552  and  _553
REMARK  227  A    between atoms: _552  and  _555
REMARK  228  A    between atoms: _555  and  _556
REMARK  229  A    between atoms: _559  and  _561
REMARK  230  A    between atoms: _561  and  _562
REMARK  231  A    between atoms: _564  and  _566
REMARK  232  A    between atoms: _566  and  _567
REMARK  233  A    between atoms: _566  and  _569
REMARK  234  A    between atoms: _569  and  _570
REMARK  235  A    between atoms: _570  and  _571
REMARK  236  A    between atoms: _571  and  _572
REMARK  237  A    between atoms: _581  and  _583
REMARK  238  A    between atoms: _583  and  _584
REMARK  239  A    between atoms: _583  and  _586
REMARK  240  A    between atoms: _586  and  _587
REMARK                            x       y       z     vdW  Elec       q    Type
REMARK                         _______ _______ _______ _____ _____    ______ ____
ROOT
ATOM      1  CA  LEU A   1      13.315  13.295  27.817  0.00  0.00    +0.133 C 
ENDROOT
BRANCH   1   2
ATOM      2  N   LEU A   1      12.425  14.199  28.538  0.00  0.00    -0.239 NA
ATOM      3  H   LEU A   1      12.284  15.167  28.184  0.00  0.00    +0.142 HD
ENDBRANCH   1   2
BRANCH   1   4
ATOM      4  C   LEU A   1      14.763  13.472  28.282  0.00  0.00    +0.224 C 
ATOM      5  O   LEU A   1      15.165  14.552  28.715  0.00  0.00    -0.287 OA
ENDBRANCH   1   4
BRANCH   1   6
ATOM      6  CB  LEU A   1      13.239  13.541  26.314  0.00  0.00    +0.025 C 
BRANCH   6   7
ATOM      7  CG  LEU A   1      11.825  13.699  25.735  0.00  0.00    +0.002 C 
ATOM      8  CD2 LEU A   1      10.992  12.478  26.031  0.00  0.00    +0.000 C 
ATOM      9  CD1 LEU A   1      11.895  14.028  24.241  0.00  0.00    +0.000 C 
ENDBRANCH   6   7
ENDBRANCH   1   6
TORSDOF 4
REMARK  Name = ../refined-set-2016/3nu4/3nu4_pocket.pdb
REMARK  240 active torsions:
REMARK  status: ('A' for Active; 'I' for Inactive)
REMARK    1  A    between atoms: _1  and  _3
REMARK    2  A    between atoms: _3  and  _4
REMARK    3  A    between atoms: _3  and  _6
REMARK    4  A    between atoms: _6  and  _7
REMARK    5  A    between atoms: _7  and  _8
REMARK    6  A    between atoms: _8  and  _9
REMARK    7  A    between atoms: _18  and  _20
REMARK    8  A    between atoms: _20  and  _21
REMARK    9  A    between atoms: _20  and  _23
REMARK   10  A    between atoms: _23  and  _24
REMARK   11  A    between atoms: _27  and  _29
REMARK   12  A    between atoms: _29  and  _30
REMARK   13  A    between atoms: _29  and  _32
REMARK   14  A    between atoms: _32  and  _33
REMARK   15  A    between atoms: _36  and  _38
REMARK   16  A    between atoms: _38  and  _39
REMARK   17  A    between atoms: _38  and  _41
REMARK   18  A    between atoms: _41  and  _42
REMARK   19  A    between atoms: _45  and  _47
REMARK   20  A    between atoms: _47  and  _48
REMARK   21  A    between atoms: _47  and  _50
REMARK   22  A    between atoms: _50  and  _51
REMARK   23  A    between atoms: _54  and  _56
REMARK   24  A    between atoms: _56  and  _57
REMARK   25  A    between atoms: _59  and  _61
REMARK   26  A    between atoms: _61  and  _62
REMARK   27  A    between atoms: _65  and  _67
REMARK   28  A    between atoms: _67  and  _68
REMARK   29  A    between atoms: _67  and  _70
REMARK   30  A    between atoms: _70  and  _71
REMARK   31  A    between atoms: _74  and  _76
REMARK   32  A    between atoms: _76  and  _77
REMARK   33  A    between atoms: _76  and  _79
REMARK   34  A    between atoms: _79  and  _80
REMARK   35  A    between atoms: _83  and  _85
REMARK   36  A    between atoms: _85  and  _86
REMARK   37  A    between atoms: _85  and  _88
REMARK   38  A    between atoms: _88  and  _89
REMARK   39  A    between atoms: _92  and  _94
REMARK   40  A    between atoms: _94  and  _95
REMARK   41  A    between atoms: _94  and  _97
REMARK   42  A    between atoms: _97  and  _98
REMARK   43  A    between atoms: _101  and  _103
REMARK   44  A    between atoms: _103  and  _104
REMARK   45  A    between atoms: _103  and  _106
REMARK   46  A    between atoms: _106  and  _107
REMARK   47  A    between atoms: _107  and  _108
REMARK   48  A    between atoms: _108  and  _109
REMARK   49  A    between atoms: _109  and  _110
REMARK   50  A    between atoms: _114  and  _116
REMARK   51  A    between atoms: _116  and  _117
REMARK   52  A    between atoms: _116  and  _119
REMARK   53  A    between atoms: _119  and  _120
REMARK   54  A    between atoms: _120  and  _121
REMARK   55  A    between atoms: _123  and  _125
REMARK   56  A    between atoms: _125  and  _126
REMARK   57  A    between atoms: _125  and  _128
REMARK   58  A    between atoms: _128  and  _129
REMARK   59  A    between atoms: _132  and  _134
REMARK   60  A    between atoms: _134  and  _135
REMARK   61  A    between atoms: _137  and  _139
REMARK   62  A    between atoms: _139  and  _140
REMARK   63  A    between atoms: _142  and  _144
REMARK   64  A    between atoms: _144  and  _145
REMARK   65  A    between atoms: _144  and  _147
REMARK   66  A    between atoms: _147  and  _148
REMARK   67  A    between atoms: _151  and  _153
REMARK   68  A    between atoms: _153  and  _154
REMARK   69  A    between atoms: _156  and  _158
REMARK   70  A    between atoms: _158  and  _159
REMARK   71  A    between atoms: _161  and  _163
REMARK   72  A    between atoms: _163  and  _164
REMARK   73  A    between atoms: _163  and  _166
REMARK   74  A    between atoms: _166  and  _167
REMARK   75  A    between atoms: _173  and  _175
REMARK   76  A    between atoms: _175  and  _176
REMARK   77  A    between atoms: _175  and  _178
REMARK   78  A    between atoms: _178  and  _179
REMARK   79  A    between atoms: _182  and  _184
REMARK   80  A    between atoms: _184  and  _185
REMARK   81  A    between atoms: _184  and  _187
REMARK   82  A    between atoms: _190  and  _192
REMARK   83  A    between atoms: _192  and  _193
REMARK   84  A    between atoms: _192  and  _195
REMARK   85  A    between atoms: _195  and  _196
REMARK   86  A    between atoms: _200  and  _201
REMARK   87  A    between atoms: _206  and  _208
REMARK   88  A    between atoms: _208  and  _209
REMARK   89  A    between atoms: _208  and  _211
REMARK   90  A    between atoms: _211  and  _212
REMARK   91  A    between atoms: _216  and  _217
REMARK   92  A    between atoms: _222  and  _224
REMARK   93  A    between atoms: _224  and  _225
REMARK   94  A    between atoms: _224  and  _227
REMARK   95  A    between atoms: _230  and  _232
REMARK   96  A    between atoms: _232  and  _233
REMARK   97  A    between atoms: _232  and  _235
REMARK   98  A    between atoms: _235  and  _236
REMARK   99  A    between atoms: _241  and  _243
REMARK  100  A    between atoms: _243  and  _244
REMARK  101  A    between atoms: _243  and  _246
REMARK  102  A    between atoms: _246  and  _247
REMARK  103  A    between atoms: _250  and  _252
REMARK  104  A    between atoms: _252  and  _253
REMARK  105  A    between atoms: _252  and  _255
REMARK  106  A    between atoms: _255  and  _256
REMARK  107  A    between atoms: _259  and  _261
REMARK  108  A    between atoms: _261  and  _262
REMARK  109  A    between atoms: _264  and  _266
REMARK  110  A    between atoms: _266  and  _267
REMARK  111  A    between atoms: _266  and  _269
REMARK  112  A    between atoms: _269  and  _270
REMARK  113  A    between atoms: _270  and  _271
REMARK  114  A    between atoms: _271  and  _272
REMARK  115  A    between atoms: _281  and  _283
REMARK  116  A    between atoms: _283  and  _284
REMARK  117  A    between atoms: _283  and  _286
REMARK  118  A    between atoms: _286  and  _287
REMARK  119  A    between atoms: _292  and  _294
REMARK  120  A    between atoms: _294  and  _295
REMARK  121  A    between atoms: _294  and  _297
REMARK  122  A    between atoms: _297  and  _298
REMARK  123  A    between atoms: _298  and  _299
REMARK  124  A    between atoms: _299  and  _300
REMARK  125  A    between atoms: _309  and  _311
REMARK  126  A    between atoms: _311  and  _312
REMARK  127  A    between atoms: _311  and  _314
REMARK  128  A    between atoms: _314  and  _315
REMARK  129  A    between atoms: _318  and  _320
REMARK  130  A    between atoms: _320  and  _321
REMARK  131  A    between atoms: _320  and  _323
REMARK  132  A    between atoms: _323  and  _324
REMARK  133  A    between atoms: _327  and  _329
REMARK  134  A    between atoms: _329  and  _330
REMARK  135  A    between atoms: _329  and  _332
REMARK  136  A    between atoms: _332  and  _333
REMARK  137  A    between atoms: _336  and  _338
REMARK  138  A    between atoms: _338  and  _339
REMARK  139  A    between atoms: _338  and  _341
REMARK  140  A    between atoms: _341  and  _342
REMARK  141  A    between atoms: _345  and  _347
REMARK  142  A    between atoms: _347  and  _348
REMARK  143  A    between atoms: _350  and  _352
REMARK  144  A    between atoms: _352  and  _353
REMARK  145  A    between atoms: _356  and  _358
REMARK  146  A    between atoms: _358  and  _359
REMARK  147  A    between atoms: _358  and  _361
REMARK  148  A    between atoms: _361  and  _362
REMARK  149  A    between atoms: _365  and  _367
REMARK  150  A    between atoms: _367  and  _368
REMARK  151  A    between atoms: _367  and  _370
REMARK  152  A    between atoms: _370  and  _371
REMARK  153  A    between atoms: _374  and  _376
REMARK  154  A    between atoms: _376  and  _377
REMARK  155  A    between atoms: _376  and  _379
REMARK  156  A    between atoms: _379  and  _380
REMARK  157  A    between atoms: _383  and  _385
REMARK  158  A    between atoms: _385  and  _386
REMARK  159  A    between atoms: _385  and  _388
REMARK  160  A    between atoms: _388  and  _389
REMARK  161  A    between atoms: _392  and  _394
REMARK  162  A    between atoms: _394  and  _395
REMARK  163  A    between atoms: _394  and  _397
REMARK  164  A    between atoms: _397  and  _398
REMARK  165  A    between atoms: _401  and  _403
REMARK  166  A    between atoms: _403  and  _404
REMARK  167  A    between atoms: _403  and  _406
REMARK  168  A    between atoms: _406  and  _407
REMARK  169  A    between atoms: _407  and  _408
REMARK  170  A    between atoms: _408  and  _409
REMARK  171  A    between atoms: _409  and  _410
REMARK  172  A    between atoms: _414  and  _416
REMARK  173  A    between atoms: _416  and  _417
REMARK  174  A    between atoms: _416  and  _419
REMARK  175  A    between atoms: _419  and  _420
REMARK  176  A    between atoms: _420  and  _421
REMARK  177  A    between atoms: _423  and  _425
REMARK  178  A    between atoms: _425  and  _426
REMARK  179  A    between atoms: _425  and  _428
REMARK  180  A    between atoms: _428  and  _429
REMARK  181  A    between atoms: _432  and  _434
REMARK  182  A    between atoms: _434  and  _435
REMARK  183  A    between atoms: _437  and  _439
REMARK  184  A    between atoms: _439  and  _440
REMARK  185  A    between atoms: _442  and  _444
REMARK  186  A    between atoms: _444  and  _445
REMARK  187  A    between atoms: _444  and  _447
REMARK  188  A    between atoms: _447  and  _448
REMARK  189  A    between atoms: _451  and  _453
REMARK  190  A    between atoms: _453  and  _454
REMARK  191  A    between atoms: _456  and  _458
REMARK  192  A    between atoms: _458  and  _459
REMARK  193  A    between atoms: _461  and  _463
REMARK  194  A    between atoms: _463  and  _464
REMARK  195  A    between atoms: _463  and  _466
REMARK  196  A    between atoms: _466  and  _467
REMARK  197  A    between atoms: _473  and  _475
REMARK  198  A    between atoms: _475  and  _476
REMARK  199  A    between atoms: _475  and  _478
REMARK  200  A    between atoms: _478  and  _479
REMARK  201  A    between atoms: _482  and  _484
REMARK  202  A    between atoms: _484  and  _485
REMARK  203  A    between atoms: _484  and  _487
REMARK  204  A    between atoms: _490  and  _492
REMARK  205  A    between atoms: _492  and  _493
REMARK  206  A    between atoms: _492  and  _495
REMARK  207  A    between atoms: _495  and  _496
REMARK  208  A    between atoms: _500  and  _501
REMARK  209  A    between atoms: _506  and  _508
REMARK  210  A    between atoms: _508  and  _509
REMARK  211  A    between atoms: _508  and  _511
REMARK  212  A    between atoms: _511  and  _512
REMARK  213  A    between atoms: _516  and  _517
REMARK  214  A    between atoms: _522  and  _524
REMARK  215  A    between atoms: _524  and  _525
REMARK  216  A    between atoms: _524  and  _527
REMARK  217  A    between atoms: _530  and  _532
REMARK  218  A    between atoms: _532  and  _533
REMARK  219  A    between atoms: _532  and  _535
REMARK  220  A    between atoms: _535  and  _536
REMARK  221  A    between atoms: _541  and  _543
REMARK  222  A    between atoms: _543  and  _544
REMARK  223  A    between atoms: _543  and  _546
REMARK  224  A    between atoms: _546  and  _547
REMARK  225  A    between atoms: _550  and  _552
REMARK  226  A    between atoms: _552  and  _553
REMARK  227  A    between atoms: _552  and  _555
REMARK  228  A    between atoms: _555  and  _556
REMARK  229  A    between atoms: _559  and  _561
REMARK  230  A    between atoms: _561  and  _562
REMARK  231  A    between atoms: _564  and  _566
REMARK  232  A    between atoms: _566  and  _567
REMARK  233  A    between atoms: _566  and  _569
REMARK  234  A    between atoms: _569  and  _570
REMARK  235  A    between atoms: _570  and  _571
REMARK  236  A    between atoms: _571  and  _572
REMARK  237  A    between atoms: _581  and  _583
REMARK  238  A    between atoms: _583  and  _584
REMARK  239  A    between atoms: _583  and  _586
REMARK  240  A    between atoms: _586  and  _587
REMARK                            x       y       z     vdW  Elec       q    Type
REMARK                         _______ _______ _______ _____ _____    ______ ____
ROOT
ATOM      1  CA  ILE A   6      15.772  22.413  26.585  0.00  0.00    +0.149 C 
ENDROOT
BRANCH   1   4
ATOM      2  C   ASN A   5      17.847  22.337  27.876  0.00  0.00    +0.241 C 
ATOM      3  O   ASN A   5      18.049  23.568  27.801  0.00  0.00    -0.273 OA
ATOM      4  N   ILE A   6      16.789  21.706  27.376  0.00  0.00    -0.297 N 
ATOM      5  H   ILE A   6      16.678  20.686  27.549  0.00  0.00    +0.150 HD
BRANCH   2   6
ATOM      6  CA  ASN A   5      18.911  21.487  28.567  0.00  0.00    +0.158 C 
BRANCH   6   8
ATOM      7  C   VAL A   4      20.537  21.661  26.818  0.00  0.00    +0.241 C 
ATOM      8  N   ASN A   5      20.248  21.889  28.075  0.00  0.00    -0.297 N 
ATOM      9  H   ASN A   5      20.938  22.340  28.709  0.00  0.00    +0.150 HD
ATOM     10  O   VAL A   4      19.812  20.995  26.076  0.00  0.00    -0.273 OA
BRANCH   7  11
ATOM     11  CA  VAL A   4      21.815  22.284  26.257  0.00  0.00    +0.149 C 
BRANCH  11  13
ATOM     12  C   PRO A   3      23.408  21.359  24.570  0.00  0.00    +0.241 C 
ATOM     13  N   VAL A   4      22.180  21.468  25.092  0.00  0.00    -0.297 N 
ATOM     14  H   VAL A   4      21.419  20.928  24.633  0.00  0.00    +0.150 HD
ATOM     15  O   PRO A   3      24.392  21.855  25.083  0.00  0.00    -0.273 OA
BRANCH  12  19
ATOM     16  C   THR A   2      22.475  18.519  23.921  0.00  0.00    +0.246 C 
ATOM     17  O   THR A   2      23.218  18.377  24.854  0.00  0.00    -0.273 OA
ATOM     18  N   PRO A   3      22.553  19.539  23.075  0.00  0.00    -0.272 N 
ATOM     19  CA  PRO A   3      23.575  20.557  23.279  0.00  0.00    +0.152 C 
ATOM     20  CB  PRO A   3      23.434  21.466  22.060  0.00  0.00    +0.031 C 
ATOM     21  CG  PRO A   3      22.061  21.212  21.565  0.00  0.00    +0.024 C 
ATOM     22  CD  PRO A   3      21.754  19.763  21.859  0.00  0.00    +0.094 C 
BRANCH  16  23
ATOM     23  CA  THR A   2      21.384  17.479  23.678  0.00  0.00    +0.176 C 
BRANCH  23  25
ATOM     24  C   PRO A   1      21.707  15.092  23.299  0.00  0.00    +0.239 C 
ATOM     25  N   THR A   2      22.020  16.204  23.950  0.00  0.00    -0.295 N 
ATOM     26  H   THR A   2      22.753  16.160  24.687  0.00  0.00    +0.150 HD
ATOM     27  O   PRO A   1      20.882  15.113  22.405  0.00  0.00    -0.274 OA
BRANCH  24  29
ATOM     28  N   PRO A   1      21.276  12.952  24.312  0.00  0.00    -0.210 NA
ATOM     29  CA  PRO A   1      22.363  13.841  23.862  0.00  0.00    +0.149 C 
ATOM     30  CB  PRO A   1      23.122  12.977  22.867  0.00  0.00    +0.028 C 
ATOM     31  CG  PRO A   1      22.149  12.011  22.347  0.00  0.00    +0.021 C 
ATOM     32  CD  PRO A   1      21.113  11.794  23.390  0.00  0.00    +0.089 C 
ENDBRANCH  24  29
ENDBRANCH  23  25
BRANCH  23  33
ATOM     33  CB  THR A   2      20.085  17.742  24.482  0.00  0.00    +0.137 C 
ATOM     34  CG2 THR A   2      20.244  17.711  25.998  0.00  0.00    +0.034 C 
BRANCH  33  35
ATOM     35  OG1 THR A   2      19.619  19.035  24.055  0.00  0.00    -0.382 OA
ATOM     36  HG1 THR A   2      20.310  19.716  24.253  0.00  0.00    +0.210 HD
ENDBRANCH  33  35
ENDBRANCH  23  33
ENDBRANCH  16  23
ENDBRANCH  12  19
ENDBRANCH  11  13
BRANCH  11  37
ATOM     37  CB  VAL A   4      21.554  23.781  26.009  0.00  0.00    +0.027 C 
ATOM     38  CG2 VAL A   4      22.824  24.510  25.587  0.00  0.00    +0.002 C 
ATOM     39  CG1 VAL A   4      20.458  24.033  24.994  0.00  0.00    +0.002 C 
ENDBRANCH  11  37
ENDBRANCH   7  11
ENDBRANCH   6   8
BRANCH   6  40
ATOM     40  CB  ASN A   5      18.791  21.670  30.072  0.00  0.00    +0.114 C 
BRANCH  40  41
ATOM     41  CG  ASN A   5      19.760  20.818  30.834  0.00  0.00    +0.222 C 
ATOM     42  ND2 ASN A   5      20.425  21.399  31.803  0.00  0.00    -0.329 N 
ATOM     43 HD21 ASN A   5      21.112  20.854  32.362  0.00  0.00    +0.145 HD
ATOM     44 HD22 ASN A   5      20.266  22.405  32.012  0.00  0.00    +0.145 HD
ATOM     45  OD1 ASN A   5      19.926  19.629  30.562  0.00  0.00    -0.275 OA
ENDBRANCH  40  41
ENDBRANCH   6  40
ENDBRANCH   2   6
ENDBRANCH   1   4
BRANCH   1  46
ATOM     46  C   ILE A   6      14.411  22.250  27.225  0.00  0.00    +0.241 C 
ATOM     47  N   ILE A   7      13.744  23.367  27.500  0.00  0.00    -0.297 N 
ATOM     48  H   ILE A   7      14.239  24.279  27.424  0.00  0.00    +0.150 HD
ATOM     49  O   ILE A   6      13.990  21.122  27.489  0.00  0.00    -0.273 OA
BRANCH  47  50
ATOM     50  CA  ILE A   7      12.356  23.359  27.901  0.00  0.00    +0.149 C 
BRANCH  50  51
ATOM     51  C   ILE A   7      11.511  23.634  26.673  0.00  0.00    +0.241 C 
ATOM     52  N   GLY A   8      10.750  22.611  26.241  0.00  0.00    -0.295 N 
ATOM     53  H   GLY A   8      10.730  21.721  26.779  0.00  0.00    +0.150 HD
ATOM     54  O   ILE A   7      11.568  24.721  26.071  0.00  0.00    -0.273 OA
BRANCH  52  55
ATOM     55  CA  GLY A   8       9.961  22.737  25.039  0.00  0.00    +0.176 C 
BRANCH  55  56
ATOM     56  C   GLY A   8       8.510  22.919  25.307  0.00  0.00    +0.243 C 
ATOM     57  O   GLY A   8       8.101  23.188  26.442  0.00  0.00    -0.273 OA
ATOM     58  N   ARG A   9       7.687  22.842  24.252  0.00  0.00    -0.297 N 
ATOM     59  H   ARG A   9       8.032  22.417  23.368  0.00  0.00    +0.150 HD
BRANCH  58  60
ATOM     60  CA  ARG A   9       6.335  23.335  24.316  0.00  0.00    +0.149 C 
BRANCH  60  61
ATOM     61  C   ARG A   9       5.490  22.565  25.319  0.00  0.00    +0.241 C 
ATOM     62  O   ARG A   9       4.557  23.155  25.877  0.00  0.00    -0.273 OA
ATOM     63  N   ASN A  10       5.752  21.291  25.529  0.00  0.00    -0.298 N 
ATOM     64  H   ASN A  10       6.523  20.819  25.015  0.00  0.00    +0.150 HD
BRANCH  63  65
ATOM     65  CA  ASN A  10       4.936  20.546  26.504  0.00  0.00    +0.146 C 
BRANCH  65  66
ATOM     66  C   ASN A  10       4.983  21.203  27.873  0.00  0.00    +0.227 C 
ATOM     67  O   ASN A  10       3.940  21.211  28.531  0.00  0.00    -0.286 OA
ENDBRANCH  65  66
BRANCH  65  68
ATOM     68  CB  ASN A  10       5.369  19.095  26.590  0.00  0.00    +0.112 C 
BRANCH  68  69
ATOM     69  CG  ASN A  10       6.710  18.857  27.213  0.00  0.00    +0.222 C 
ATOM     70  ND2 ASN A  10       6.701  17.964  28.179  0.00  0.00    -0.329 N 
ATOM     71 HD21 ASN A  10       7.580  17.740  28.689  0.00  0.00    +0.145 HD
ATOM     72 HD22 ASN A  10       5.815  17.482  28.433  0.00  0.00    +0.145 HD
ATOM     73  OD1 ASN A  10       7.712  19.476  26.846  0.00  0.00    -0.275 OA
ENDBRANCH  68  69
ENDBRANCH  65  68
ENDBRANCH  63  65
ENDBRANCH  60  61
BRANCH  60  74
ATOM     74  CB  ARG A   9       5.663  23.315  22.953  0.00  0.00    +0.033 C 
BRANCH  74  75
ATOM     75  CG  ARG A   9       6.276  24.332  21.963  0.00  0.00    +0.045 C 
BRANCH  75  76
ATOM     76  CD  ARG A   9       5.482  24.430  20.678  0.00  0.00    +0.174 C 
BRANCH  76  77
ATOM     77  NE  ARG A   9       5.464  23.174  19.927  0.00  0.00    -0.265 N 
ATOM     78  CZ  ARG A   9       4.480  22.271  19.961  0.00  0.00    +0.342 C 
ATOM     79  NH2 ARG A   9       3.337  22.428  20.666  0.00  0.00    -0.292 N 
ATOM     80 HH21 ARG A   9       3.185  23.292  21.225  0.00  0.00    +0.255 HD
ATOM     81 HH22 ARG A   9       2.610  21.685  20.649  0.00  0.00    +0.255 HD
ATOM     82  NH1 ARG A   9       4.645  21.176  19.237  0.00  0.00    -0.292 N 
ATOM     83 HH11 ARG A   9       3.908  20.442  19.229  0.00  0.00    +0.255 HD
ATOM     84 HH12 ARG A   9       5.511  21.049  18.676  0.00  0.00    +0.255 HD
ATOM     85  HE  ARG A   9       6.282  22.968  19.319  0.00  0.00    +0.259 HD
ENDBRANCH  76  77
ENDBRANCH  75  76
ENDBRANCH  74  75
ENDBRANCH  60  74
ENDBRANCH  58  60
ENDBRANCH  55  56
ENDBRANCH  52  55
ENDBRANCH  50  51
BRANCH  50  86
ATOM     86  CB  ILE A   7      12.071  24.394  28.999  0.00  0.00    +0.027 C 
ATOM     87  CG2 ILE A   7      10.606  24.352  29.397  0.00  0.00    +0.002 C 
BRANCH  86  88
ATOM     88  CG1 ILE A   7      13.003  24.276  30.194  0.00  0.00    +0.002 C 
ATOM     89  CD1 ILE A   7      13.017  22.942  30.841  0.00  0.00    +0.000 C 
ENDBRANCH  86  88
ENDBRANCH  50  86
ENDBRANCH  47  50
ENDBRANCH   1  46
BRANCH   1  90
ATOM     90  CB  ILE A   6      15.767  21.843  25.165  0.00  0.00    +0.027 C 
ATOM     91  CG2 ILE A   6      14.532  22.249  24.410  0.00  0.00    +0.002 C 
BRANCH  90  92
ATOM     92  CG1 ILE A   6      17.047  22.199  24.409  0.00  0.00    +0.002 C 
ATOM     93  CD1 ILE A   6      17.204  21.387  23.153  0.00  0.00    +0.000 C 
ENDBRANCH  90  92
ENDBRANCH   1  90
TORSDOF 33
REMARK  Name = ../refined-set-2016/3nu4/3nu4_pocket.pdb
REMARK  240 active torsions:
REMARK  status: ('A' for Active; 'I' for Inactive)
REMARK    1  A    between atoms: _1  and  _3
REMARK    2  A    between atoms: _3  and  _4
REMARK    3  A    between atoms: _3  and  _6
REMARK    4  A    between atoms: _6  and  _7
REMARK    5  A    between atoms: _7  and  _8
REMARK    6  A    between atoms: _8  and  _9
REMARK    7  A    between atoms: _18  and  _20
REMARK    8  A    between atoms: _20  and  _21
REMARK    9  A    between atoms: _20  and  _23
REMARK   10  A    between atoms: _23  and  _24
REMARK   11  A    between atoms: _27  and  _29
REMARK   12  A    between atoms: _29  and  _30
REMARK   13  A    between atoms: _29  and  _32
REMARK   14  A    between atoms: _32  and  _33
REMARK   15  A    between atoms: _36  and  _38
REMARK   16  A    between atoms: _38  and  _39
REMARK   17  A    between atoms: _38  and  _41
REMARK   18  A    between atoms: _41  and  _42
REMARK   19  A    between atoms: _45  and  _47
REMARK   20  A    between atoms: _47  and  _48
REMARK   21  A    between atoms: _47  and  _50
REMARK   22  A    between atoms: _50  and  _51
REMARK   23  A    between atoms: _54  and  _56
REMARK   24  A    between atoms: _56  and  _57
REMARK   25  A    between atoms: _59  and  _61
REMARK   26  A    between atoms: _61  and  _62
REMARK   27  A    between atoms: _65  and  _67
REMARK   28  A    between atoms: _67  and  _68
REMARK   29  A    between atoms: _67  and  _70
REMARK   30  A    between atoms: _70  and  _71
REMARK   31  A    between atoms: _74  and  _76
REMARK   32  A    between atoms: _76  and  _77
REMARK   33  A    between atoms: _76  and  _79
REMARK   34  A    between atoms: _79  and  _80
REMARK   35  A    between atoms: _83  and  _85
REMARK   36  A    between atoms: _85  and  _86
REMARK   37  A    between atoms: _85  and  _88
REMARK   38  A    between atoms: _88  and  _89
REMARK   39  A    between atoms: _92  and  _94
REMARK   40  A    between atoms: _94  and  _95
REMARK   41  A    between atoms: _94  and  _97
REMARK   42  A    between atoms: _97  and  _98
REMARK   43  A    between atoms: _101  and  _103
REMARK   44  A    between atoms: _103  and  _104
REMARK   45  A    between atoms: _103  and  _106
REMARK   46  A    between atoms: _106  and  _107
REMARK   47  A    between atoms: _107  and  _108
REMARK   48  A    between atoms: _108  and  _109
REMARK   49  A    between atoms: _109  and  _110
REMARK   50  A    between atoms: _114  and  _116
REMARK   51  A    between atoms: _116  and  _117
REMARK   52  A    between atoms: _116  and  _119
REMARK   53  A    between atoms: _119  and  _120
REMARK   54  A    between atoms: _120  and  _121
REMARK   55  A    between atoms: _123  and  _125
REMARK   56  A    between atoms: _125  and  _126
REMARK   57  A    between atoms: _125  and  _128
REMARK   58  A    between atoms: _128  and  _129
REMARK   59  A    between atoms: _132  and  _134
REMARK   60  A    between atoms: _134  and  _135
REMARK   61  A    between atoms: _137  and  _139
REMARK   62  A    between atoms: _139  and  _140
REMARK   63  A    between atoms: _142  and  _144
REMARK   64  A    between atoms: _144  and  _145
REMARK   65  A    between atoms: _144  and  _147
REMARK   66  A    between atoms: _147  and  _148
REMARK   67  A    between atoms: _151  and  _153
REMARK   68  A    between atoms: _153  and  _154
REMARK   69  A    between atoms: _156  and  _158
REMARK   70  A    between atoms: _158  and  _159
REMARK   71  A    between atoms: _161  and  _163
REMARK   72  A    between atoms: _163  and  _164
REMARK   73  A    between atoms: _163  and  _166
REMARK   74  A    between atoms: _166  and  _167
REMARK   75  A    between atoms: _173  and  _175
REMARK   76  A    between atoms: _175  and  _176
REMARK   77  A    between atoms: _175  and  _178
REMARK   78  A    between atoms: _178  and  _179
REMARK   79  A    between atoms: _182  and  _184
REMARK   80  A    between atoms: _184  and  _185
REMARK   81  A    between atoms: _184  and  _187
REMARK   82  A    between atoms: _190  and  _192
REMARK   83  A    between atoms: _192  and  _193
REMARK   84  A    between atoms: _192  and  _195
REMARK   85  A    between atoms: _195  and  _196
REMARK   86  A    between atoms: _200  and  _201
REMARK   87  A    between atoms: _206  and  _208
REMARK   88  A    between atoms: _208  and  _209
REMARK   89  A    between atoms: _208  and  _211
REMARK   90  A    between atoms: _211  and  _212
REMARK   91  A    between atoms: _216  and  _217
REMARK   92  A    between atoms: _222  and  _224
REMARK   93  A    between atoms: _224  and  _225
REMARK   94  A    between atoms: _224  and  _227
REMARK   95  A    between atoms: _230  and  _232
REMARK   96  A    between atoms: _232  and  _233
REMARK   97  A    between atoms: _232  and  _235
REMARK   98  A    between atoms: _235  and  _236
REMARK   99  A    between atoms: _241  and  _243
REMARK  100  A    between atoms: _243  and  _244
REMARK  101  A    between atoms: _243  and  _246
REMARK  102  A    between atoms: _246  and  _247
REMARK  103  A    between atoms: _250  and  _252
REMARK  104  A    between atoms: _252  and  _253
REMARK  105  A    between atoms: _252  and  _255
REMARK  106  A    between atoms: _255  and  _256
REMARK  107  A    between atoms: _259  and  _261
REMARK  108  A    between atoms: _261  and  _262
REMARK  109  A    between atoms: _264  and  _266
REMARK  110  A    between atoms: _266  and  _267
REMARK  111  A    between atoms: _266  and  _269
REMARK  112  A    between atoms: _269  and  _270
REMARK  113  A    between atoms: _270  and  _271
REMARK  114  A    between atoms: _271  and  _272
REMARK  115  A    between atoms: _281  and  _283
REMARK  116  A    between atoms: _283  and  _284
REMARK  117  A    between atoms: _283  and  _286
REMARK  118  A    between atoms: _286  and  _287
REMARK  119  A    between atoms: _292  and  _294
REMARK  120  A    between atoms: _294  and  _295
REMARK  121  A    between atoms: _294  and  _297
REMARK  122  A    between atoms: _297  and  _298
REMARK  123  A    between atoms: _298  and  _299
REMARK  124  A    between atoms: _299  and  _300
REMARK  125  A    between atoms: _309  and  _311
REMARK  126  A    between atoms: _311  and  _312
REMARK  127  A    between atoms: _311  and  _314
REMARK  128  A    between atoms: _314  and  _315
REMARK  129  A    between atoms: _318  and  _320
REMARK  130  A    between atoms: _320  and  _321
REMARK  131  A    between atoms: _320  and  _323
REMARK  132  A    between atoms: _323  and  _324
REMARK  133  A    between atoms: _327  and  _329
REMARK  134  A    between atoms: _329  and  _330
REMARK  135  A    between atoms: _329  and  _332
REMARK  136  A    between atoms: _332  and  _333
REMARK  137  A    between atoms: _336  and  _338
REMARK  138  A    between atoms: _338  and  _339
REMARK  139  A    between atoms: _338  and  _341
REMARK  140  A    between atoms: _341  and  _342
REMARK  141  A    between atoms: _345  and  _347
REMARK  142  A    between atoms: _347  and  _348
REMARK  143  A    between atoms: _350  and  _352
REMARK  144  A    between atoms: _352  and  _353
REMARK  145  A    between atoms: _356  and  _358
REMARK  146  A    between atoms: _358  and  _359
REMARK  147  A    between atoms: _358  and  _361
REMARK  148  A    between atoms: _361  and  _362
REMARK  149  A    between atoms: _365  and  _367
REMARK  150  A    between atoms: _367  and  _368
REMARK  151  A    between atoms: _367  and  _370
REMARK  152  A    between atoms: _370  and  _371
REMARK  153  A    between atoms: _374  and  _376
REMARK  154  A    between atoms: _376  and  _377
REMARK  155  A    between atoms: _376  and  _379
REMARK  156  A    between atoms: _379  and  _380
REMARK  157  A    between atoms: _383  and  _385
REMARK  158  A    between atoms: _385  and  _386
REMARK  159  A    between atoms: _385  and  _388
REMARK  160  A    between atoms: _388  and  _389
REMARK  161  A    between atoms: _392  and  _394
REMARK  162  A    between atoms: _394  and  _395
REMARK  163  A    between atoms: _394  and  _397
REMARK  164  A    between atoms: _397  and  _398
REMARK  165  A    between atoms: _401  and  _403
REMARK  166  A    between atoms: _403  and  _404
REMARK  167  A    between atoms: _403  and  _406
REMARK  168  A    between atoms: _406  and  _407
REMARK  169  A    between atoms: _407  and  _408
REMARK  170  A    between atoms: _408  and  _409
REMARK  171  A    between atoms: _409  and  _410
REMARK  172  A    between atoms: _414  and  _416
REMARK  173  A    between atoms: _416  and  _417
REMARK  174  A    between atoms: _416  and  _419
REMARK  175  A    between atoms: _419  and  _420
REMARK  176  A    between atoms: _420  and  _421
REMARK  177  A    between atoms: _423  and  _425
REMARK  178  A    between atoms: _425  and  _426
REMARK  179  A    between atoms: _425  and  _428
REMARK  180  A    between atoms: _428  and  _429
REMARK  181  A    between atoms: _432  and  _434
REMARK  182  A    between atoms: _434  and  _435
REMARK  183  A    between atoms: _437  and  _439
REMARK  184  A    between atoms: _439  and  _440
REMARK  185  A    between atoms: _442  and  _444
REMARK  186  A    between atoms: _444  and  _445
REMARK  187  A    between atoms: _444  and  _447
REMARK  188  A    between atoms: _447  and  _448
REMARK  189  A    between atoms: _451  and  _453
REMARK  190  A    between atoms: _453  and  _454
REMARK  191  A    between atoms: _456  and  _458
REMARK  192  A    between atoms: _458  and  _459
REMARK  193  A    between atoms: _461  and  _463
REMARK  194  A    between atoms: _463  and  _464
REMARK  195  A    between atoms: _463  and  _466
REMARK  196  A    between atoms: _466  and  _467
REMARK  197  A    between atoms: _473  and  _475
REMARK  198  A    between atoms: _475  and  _476
REMARK  199  A    between atoms: _475  and  _478
REMARK  200  A    between atoms: _478  and  _479
REMARK  201  A    between atoms: _482  and  _484
REMARK  202  A    between atoms: _484  and  _485
REMARK  203  A    between atoms: _484  and  _487
REMARK  204  A    between atoms: _490  and  _492
REMARK  205  A    between atoms: _492  and  _493
REMARK  206  A    between atoms: _492  and  _495
REMARK  207  A    between atoms: _495  and  _496
REMARK  208  A    between atoms: _500  and  _501
REMARK  209  A    between atoms: _506  and  _508
REMARK  210  A    between atoms: _508  and  _509
REMARK  211  A    between atoms: _508  and  _511
REMARK  212  A    between atoms: _511  and  _512
REMARK  213  A    between atoms: _516  and  _517
REMARK  214  A    between atoms: _522  and  _524
REMARK  215  A    between atoms: _524  and  _525
REMARK  216  A    between atoms: _524  and  _527
REMARK  217  A    between atoms: _530  and  _532
REMARK  218  A    between atoms: _532  and  _533
REMARK  219  A    between atoms: _532  and  _535
REMARK  220  A    between atoms: _535  and  _536
REMARK  221  A    between atoms: _541  and  _543
REMARK  222  A    between atoms: _543  and  _544
REMARK  223  A    between atoms: _543  and  _546
REMARK  224  A    between atoms: _546  and  _547
REMARK  225  A    between atoms: _550  and  _552
REMARK  226  A    between atoms: _552  and  _553
REMARK  227  A    between atoms: _552  and  _555
REMARK  228  A    between atoms: _555  and  _556
REMARK  229  A    between atoms: _559  and  _561
REMARK  230  A    between atoms: _561  and  _562
REMARK  231  A    between atoms: _564  and  _566
REMARK  232  A    between atoms: _566  and  _567
REMARK  233  A    between atoms: _566  and  _569
REMARK  234  A    between atoms: _569  and  _570
REMARK  235  A    between atoms: _570  and  _571
REMARK  236  A    between atoms: _571  and  _572
REMARK  237  A    between atoms: _581  and  _583
REMARK  238  A    between atoms: _583  and  _584
REMARK  239  A    between atoms: _583  and  _586
REMARK  240  A    between atoms: _586  and  _587
REMARK                            x       y       z     vdW  Elec       q    Type
REMARK                         _______ _______ _______ _____ _____    ______ ____
ROOT
ATOM      1  O   HOH     1      18.329  30.833  21.548  0.00  0.00    +0.000 OA
ENDROOT
TORSDOF 0
REMARK  Name = ../refined-set-2016/3nu4/3nu4_pocket.pdb
REMARK  240 active torsions:
REMARK  status: ('A' for Active; 'I' for Inactive)
REMARK    1  A    between atoms: _1  and  _3
REMARK    2  A    between atoms: _3  and  _4
REMARK    3  A    between atoms: _3  and  _6
REMARK    4  A    between atoms: _6  and  _7
REMARK    5  A    between atoms: _7  and  _8
REMARK    6  A    between atoms: _8  and  _9
REMARK    7  A    between atoms: _18  and  _20
REMARK    8  A    between atoms: _20  and  _21
REMARK    9  A    between atoms: _20  and  _23
REMARK   10  A    between atoms: _23  and  _24
REMARK   11  A    between atoms: _27  and  _29
REMARK   12  A    between atoms: _29  and  _30
REMARK   13  A    between atoms: _29  and  _32
REMARK   14  A    between atoms: _32  and  _33
REMARK   15  A    between atoms: _36  and  _38
REMARK   16  A    between atoms: _38  and  _39
REMARK   17  A    between atoms: _38  and  _41
REMARK   18  A    between atoms: _41  and  _42
REMARK   19  A    between atoms: _45  and  _47
REMARK   20  A    between atoms: _47  and  _48
REMARK   21  A    between atoms: _47  and  _50
REMARK   22  A    between atoms: _50  and  _51
REMARK   23  A    between atoms: _54  and  _56
REMARK   24  A    between atoms: _56  and  _57
REMARK   25  A    between atoms: _59  and  _61
REMARK   26  A    between atoms: _61  and  _62
REMARK   27  A    between atoms: _65  and  _67
REMARK   28  A    between atoms: _67  and  _68
REMARK   29  A    between atoms: _67  and  _70
REMARK   30  A    between atoms: _70  and  _71
REMARK   31  A    between atoms: _74  and  _76
REMARK   32  A    between atoms: _76  and  _77
REMARK   33  A    between atoms: _76  and  _79
REMARK   34  A    between atoms: _79  and  _80
REMARK   35  A    between atoms: _83  and  _85
REMARK   36  A    between atoms: _85  and  _86
REMARK   37  A    between atoms: _85  and  _88
REMARK   38  A    between atoms: _88  and  _89
REMARK   39  A    between atoms: _92  and  _94
REMARK   40  A    between atoms: _94  and  _95
REMARK   41  A    between atoms: _94  and  _97
REMARK   42  A    between atoms: _97  and  _98
REMARK   43  A    between atoms: _101  and  _103
REMARK   44  A    between atoms: _103  and  _104
REMARK   45  A    between atoms: _103  and  _106
REMARK   46  A    between atoms: _106  and  _107
REMARK   47  A    between atoms: _107  and  _108
REMARK   48  A    between atoms: _108  and  _109
REMARK   49  A    between atoms: _109  and  _110
REMARK   50  A    between atoms: _114  and  _116
REMARK   51  A    between atoms: _116  and  _117
REMARK   52  A    between atoms: _116  and  _119
REMARK   53  A    between atoms: _119  and  _120
REMARK   54  A    between atoms: _120  and  _121
REMARK   55  A    between atoms: _123  and  _125
REMARK   56  A    between atoms: _125  and  _126
REMARK   57  A    between atoms: _125  and  _128
REMARK   58  A    between atoms: _128  and  _129
REMARK   59  A    between atoms: _132  and  _134
REMARK   60  A    between atoms: _134  and  _135
REMARK   61  A    between atoms: _137  and  _139
REMARK   62  A    between atoms: _139  and  _140
REMARK   63  A    between atoms: _142  and  _144
REMARK   64  A    between atoms: _144  and  _145
REMARK   65  A    between atoms: _144  and  _147
REMARK   66  A    between atoms: _147  and  _148
REMARK   67  A    between atoms: _151  and  _153
REMARK   68  A    between atoms: _153  and  _154
REMARK   69  A    between atoms: _156  and  _158
REMARK   70  A    between atoms: _158  and  _159
REMARK   71  A    between atoms: _161  and  _163
REMARK   72  A    between atoms: _163  and  _164
REMARK   73  A    between atoms: _163  and  _166
REMARK   74  A    between atoms: _166  and  _167
REMARK   75  A    between atoms: _173  and  _175
REMARK   76  A    between atoms: _175  and  _176
REMARK   77  A    between atoms: _175  and  _178
REMARK   78  A    between atoms: _178  and  _179
REMARK   79  A    between atoms: _182  and  _184
REMARK   80  A    between atoms: _184  and  _185
REMARK   81  A    between atoms: _184  and  _187
REMARK   82  A    between atoms: _190  and  _192
REMARK   83  A    between atoms: _192  and  _193
REMARK   84  A    between atoms: _192  and  _195
REMARK   85  A    between atoms: _195  and  _196
REMARK   86  A    between atoms: _200  and  _201
REMARK   87  A    between atoms: _206  and  _208
REMARK   88  A    between atoms: _208  and  _209
REMARK   89  A    between atoms: _208  and  _211
REMARK   90  A    between atoms: _211  and  _212
REMARK   91  A    between atoms: _216  and  _217
REMARK   92  A    between atoms: _222  and  _224
REMARK   93  A    between atoms: _224  and  _225
REMARK   94  A    between atoms: _224  and  _227
REMARK   95  A    between atoms: _230  and  _232
REMARK   96  A    between atoms: _232  and  _233
REMARK   97  A    between atoms: _232  and  _235
REMARK   98  A    between atoms: _235  and  _236
REMARK   99  A    between atoms: _241  and  _243
REMARK  100  A    between atoms: _243  and  _244
REMARK  101  A    between atoms: _243  and  _246
REMARK  102  A    between atoms: _246  and  _247
REMARK  103  A    between atoms: _250  and  _252
REMARK  104  A    between atoms: _252  and  _253
REMARK  105  A    between atoms: _252  and  _255
REMARK  106  A    between atoms: _255  and  _256
REMARK  107  A    between atoms: _259  and  _261
REMARK  108  A    between atoms: _261  and  _262
REMARK  109  A    between atoms: _264  and  _266
REMARK  110  A    between atoms: _266  and  _267
REMARK  111  A    between atoms: _266  and  _269
REMARK  112  A    between atoms: _269  and  _270
REMARK  113  A    between atoms: _270  and  _271
REMARK  114  A    between atoms: _271  and  _272
REMARK  115  A    between atoms: _281  and  _283
REMARK  116  A    between atoms: _283  and  _284
REMARK  117  A    between atoms: _283  and  _286
REMARK  118  A    between atoms: _286  and  _287
REMARK  119  A    between atoms: _292  and  _294
REMARK  120  A    between atoms: _294  and  _295
REMARK  121  A    between atoms: _294  and  _297
REMARK  122  A    between atoms: _297  and  _298
REMARK  123  A    between atoms: _298  and  _299
REMARK  124  A    between atoms: _299  and  _300
REMARK  125  A    between atoms: _309  and  _311
REMARK  126  A    between atoms: _311  and  _312
REMARK  127  A    between atoms: _311  and  _314
REMARK  128  A    between atoms: _314  and  _315
REMARK  129  A    between atoms: _318  and  _320
REMARK  130  A    between atoms: _320  and  _321
REMARK  131  A    between atoms: _320  and  _323
REMARK  132  A    between atoms: _323  and  _324
REMARK  133  A    between atoms: _327  and  _329
REMARK  134  A    between atoms: _329  and  _330
REMARK  135  A    between atoms: _329  and  _332
REMARK  136  A    between atoms: _332  and  _333
REMARK  137  A    between atoms: _336  and  _338
REMARK  138  A    between atoms: _338  and  _339
REMARK  139  A    between atoms: _338  and  _341
REMARK  140  A    between atoms: _341  and  _342
REMARK  141  A    between atoms: _345  and  _347
REMARK  142  A    between atoms: _347  and  _348
REMARK  143  A    between atoms: _350  and  _352
REMARK  144  A    between atoms: _352  and  _353
REMARK  145  A    between atoms: _356  and  _358
REMARK  146  A    between atoms: _358  and  _359
REMARK  147  A    between atoms: _358  and  _361
REMARK  148  A    between atoms: _361  and  _362
REMARK  149  A    between atoms: _365  and  _367
REMARK  150  A    between atoms: _367  and  _368
REMARK  151  A    between atoms: _367  and  _370
REMARK  152  A    between atoms: _370  and  _371
REMARK  153  A    between atoms: _374  and  _376
REMARK  154  A    between atoms: _376  and  _377
REMARK  155  A    between atoms: _376  and  _379
REMARK  156  A    between atoms: _379  and  _380
REMARK  157  A    between atoms: _383  and  _385
REMARK  158  A    between atoms: _385  and  _386
REMARK  159  A    between atoms: _385  and  _388
REMARK  160  A    between atoms: _388  and  _389
REMARK  161  A    between atoms: _392  and  _394
REMARK  162  A    between atoms: _394  and  _395
REMARK  163  A    between atoms: _394  and  _397
REMARK  164  A    between atoms: _397  and  _398
REMARK  165  A    between atoms: _401  and  _403
REMARK  166  A    between atoms: _403  and  _404
REMARK  167  A    between atoms: _403  and  _406
REMARK  168  A    between atoms: _406  and  _407
REMARK  169  A    between atoms: _407  and  _408
REMARK  170  A    between atoms: _408  and  _409
REMARK  171  A    between atoms: _409  and  _410
REMARK  172  A    between atoms: _414  and  _416
REMARK  173  A    between atoms: _416  and  _417
REMARK  174  A    between atoms: _416  and  _419
REMARK  175  A    between atoms: _419  and  _420
REMARK  176  A    between atoms: _420  and  _421
REMARK  177  A    between atoms: _423  and  _425
REMARK  178  A    between atoms: _425  and  _426
REMARK  179  A    between atoms: _425  and  _428
REMARK  180  A    between atoms: _428  and  _429
REMARK  181  A    between atoms: _432  and  _434
REMARK  182  A    between atoms: _434  and  _435
REMARK  183  A    between atoms: _437  and  _439
REMARK  184  A    between atoms: _439  and  _440
REMARK  185  A    between atoms: _442  and  _444
REMARK  186  A    between atoms: _444  and  _445
REMARK  187  A    between atoms: _444  and  _447
REMARK  188  A    between atoms: _447  and  _448
REMARK  189  A    between atoms: _451  and  _453
REMARK  190  A    between atoms: _453  and  _454
REMARK  191  A    between atoms: _456  and  _458
REMARK  192  A    between atoms: _458  and  _459
REMARK  193  A    between atoms: _461  and  _463
REMARK  194  A    between atoms: _463  and  _464
REMARK  195  A    between atoms: _463  and  _466
REMARK  196  A    between atoms: _466  and  _467
REMARK  197  A    between atoms: _473  and  _475
REMARK  198  A    between atoms: _475  and  _476
REMARK  199  A    between atoms: _475  and  _478
REMARK  200  A    between atoms: _478  and  _479
REMARK  201  A    between atoms: _482  and  _484
REMARK  202  A    between atoms: _484  and  _485
REMARK  203  A    between atoms: _484  and  _487
REMARK  204  A    between atoms: _490  and  _492
REMARK  205  A    between atoms: _492  and  _493
REMARK  206  A    between atoms: _492  and  _495
REMARK  207  A    between atoms: _495  and  _496
REMARK  208  A    between atoms: _500  and  _501
REMARK  209  A    between atoms: _506  and  _508
REMARK  210  A    between atoms: _508  and  _509
REMARK  211  A    between atoms: _508  and  _511
REMARK  212  A    between atoms: _511  and  _512
REMARK  213  A    between atoms: _516  and  _517
REMARK  214  A    between atoms: _522  and  _524
REMARK  215  A    between atoms: _524  and  _525
REMARK  216  A    between atoms: _524  and  _527
REMARK  217  A    between atoms: _530  and  _532
REMARK  218  A    between atoms: _532  and  _533
REMARK  219  A    between atoms: _532  and  _535
REMARK  220  A    between atoms: _535  and  _536
REMARK  221  A    between atoms: _541  and  _543
REMARK  222  A    between atoms: _543  and  _544
REMARK  223  A    between atoms: _543  and  _546
REMARK  224  A    between atoms: _546  and  _547
REMARK  225  A    between atoms: _550  and  _552
REMARK  226  A    between atoms: _552  and  _553
REMARK  227  A    between atoms: _552  and  _555
REMARK  228  A    between atoms: _555  and  _556
REMARK  229  A    between atoms: _559  and  _561
REMARK  230  A    between atoms: _561  and  _562
REMARK  231  A    between atoms: _564  and  _566
REMARK  232  A    between atoms: _566  and  _567
REMARK  233  A    between atoms: _566  and  _569
REMARK  234  A    between atoms: _569  and  _570
REMARK  235  A    between atoms: _570  and  _571
REMARK  236  A    between atoms: _571  and  _572
REMARK  237  A    between atoms: _581  and  _583
REMARK  238  A    between atoms: _583  and  _584
REMARK  239  A    between atoms: _583  and  _586
REMARK  240  A    between atoms: _586  and  _587
REMARK                            x       y       z     vdW  Elec       q    Type
REMARK                         _______ _______ _______ _____ _____    ______ ____
ROOT
ATOM      1  O   HOH     1      20.884  35.820  17.580  0.00  0.00    +0.000 OA
ENDROOT
TORSDOF 0
REMARK  Name = ../refined-set-2016/3nu4/3nu4_pocket.pdb
REMARK  240 active torsions:
REMARK  status: ('A' for Active; 'I' for Inactive)
REMARK    1  A    between atoms: _1  and  _3
REMARK    2  A    between atoms: _3  and  _4
REMARK    3  A    between atoms: _3  and  _6
REMARK    4  A    between atoms: _6  and  _7
REMARK    5  A    between atoms: _7  and  _8
REMARK    6  A    between atoms: _8  and  _9
REMARK    7  A    between atoms: _18  and  _20
REMARK    8  A    between atoms: _20  and  _21
REMARK    9  A    between atoms: _20  and  _23
REMARK   10  A    between atoms: _23  and  _24
REMARK   11  A    between atoms: _27  and  _29
REMARK   12  A    between atoms: _29  and  _30
REMARK   13  A    between atoms: _29  and  _32
REMARK   14  A    between atoms: _32  and  _33
REMARK   15  A    between atoms: _36  and  _38
REMARK   16  A    between atoms: _38  and  _39
REMARK   17  A    between atoms: _38  and  _41
REMARK   18  A    between atoms: _41  and  _42
REMARK   19  A    between atoms: _45  and  _47
REMARK   20  A    between atoms: _47  and  _48
REMARK   21  A    between atoms: _47  and  _50
REMARK   22  A    between atoms: _50  and  _51
REMARK   23  A    between atoms: _54  and  _56
REMARK   24  A    between atoms: _56  and  _57
REMARK   25  A    between atoms: _59  and  _61
REMARK   26  A    between atoms: _61  and  _62
REMARK   27  A    between atoms: _65  and  _67
REMARK   28  A    between atoms: _67  and  _68
REMARK   29  A    between atoms: _67  and  _70
REMARK   30  A    between atoms: _70  and  _71
REMARK   31  A    between atoms: _74  and  _76
REMARK   32  A    between atoms: _76  and  _77
REMARK   33  A    between atoms: _76  and  _79
REMARK   34  A    between atoms: _79  and  _80
REMARK   35  A    between atoms: _83  and  _85
REMARK   36  A    between atoms: _85  and  _86
REMARK   37  A    between atoms: _85  and  _88
REMARK   38  A    between atoms: _88  and  _89
REMARK   39  A    between atoms: _92  and  _94
REMARK   40  A    between atoms: _94  and  _95
REMARK   41  A    between atoms: _94  and  _97
REMARK   42  A    between atoms: _97  and  _98
REMARK   43  A    between atoms: _101  and  _103
REMARK   44  A    between atoms: _103  and  _104
REMARK   45  A    between atoms: _103  and  _106
REMARK   46  A    between atoms: _106  and  _107
REMARK   47  A    between atoms: _107  and  _108
REMARK   48  A    between atoms: _108  and  _109
REMARK   49  A    between atoms: _109  and  _110
REMARK   50  A    between atoms: _114  and  _116
REMARK   51  A    between atoms: _116  and  _117
REMARK   52  A    between atoms: _116  and  _119
REMARK   53  A    between atoms: _119  and  _120
REMARK   54  A    between atoms: _120  and  _121
REMARK   55  A    between atoms: _123  and  _125
REMARK   56  A    between atoms: _125  and  _126
REMARK   57  A    between atoms: _125  and  _128
REMARK   58  A    between atoms: _128  and  _129
REMARK   59  A    between atoms: _132  and  _134
REMARK   60  A    between atoms: _134  and  _135
REMARK   61  A    between atoms: _137  and  _139
REMARK   62  A    between atoms: _139  and  _140
REMARK   63  A    between atoms: _142  and  _144
REMARK   64  A    between atoms: _144  and  _145
REMARK   65  A    between atoms: _144  and  _147
REMARK   66  A    between atoms: _147  and  _148
REMARK   67  A    between atoms: _151  and  _153
REMARK   68  A    between atoms: _153  and  _154
REMARK   69  A    between atoms: _156  and  _158
REMARK   70  A    between atoms: _158  and  _159
REMARK   71  A    between atoms: _161  and  _163
REMARK   72  A    between atoms: _163  and  _164
REMARK   73  A    between atoms: _163  and  _166
REMARK   74  A    between atoms: _166  and  _167
REMARK   75  A    between atoms: _173  and  _175
REMARK   76  A    between atoms: _175  and  _176
REMARK   77  A    between atoms: _175  and  _178
REMARK   78  A    between atoms: _178  and  _179
REMARK   79  A    between atoms: _182  and  _184
REMARK   80  A    between atoms: _184  and  _185
REMARK   81  A    between atoms: _184  and  _187
REMARK   82  A    between atoms: _190  and  _192
REMARK   83  A    between atoms: _192  and  _193
REMARK   84  A    between atoms: _192  and  _195
REMARK   85  A    between atoms: _195  and  _196
REMARK   86  A    between atoms: _200  and  _201
REMARK   87  A    between atoms: _206  and  _208
REMARK   88  A    between atoms: _208  and  _209
REMARK   89  A    between atoms: _208  and  _211
REMARK   90  A    between atoms: _211  and  _212
REMARK   91  A    between atoms: _216  and  _217
REMARK   92  A    between atoms: _222  and  _224
REMARK   93  A    between atoms: _224  and  _225
REMARK   94  A    between atoms: _224  and  _227
REMARK   95  A    between atoms: _230  and  _232
REMARK   96  A    between atoms: _232  and  _233
REMARK   97  A    between atoms: _232  and  _235
REMARK   98  A    between atoms: _235  and  _236
REMARK   99  A    between atoms: _241  and  _243
REMARK  100  A    between atoms: _243  and  _244
REMARK  101  A    between atoms: _243  and  _246
REMARK  102  A    between atoms: _246  and  _247
REMARK  103  A    between atoms: _250  and  _252
REMARK  104  A    between atoms: _252  and  _253
REMARK  105  A    between atoms: _252  and  _255
REMARK  106  A    between atoms: _255  and  _256
REMARK  107  A    between atoms: _259  and  _261
REMARK  108  A    between atoms: _261  and  _262
REMARK  109  A    between atoms: _264  and  _266
REMARK  110  A    between atoms: _266  and  _267
REMARK  111  A    between atoms: _266  and  _269
REMARK  112  A    between atoms: _269  and  _270
REMARK  113  A    between atoms: _270  and  _271
REMARK  114  A    between atoms: _271  and  _272
REMARK  115  A    between atoms: _281  and  _283
REMARK  116  A    between atoms: _283  and  _284
REMARK  117  A    between atoms: _283  and  _286
REMARK  118  A    between atoms: _286  and  _287
REMARK  119  A    between atoms: _292  and  _294
REMARK  120  A    between atoms: _294  and  _295
REMARK  121  A    between atoms: _294  and  _297
REMARK  122  A    between atoms: _297  and  _298
REMARK  123  A    between atoms: _298  and  _299
REMARK  124  A    between atoms: _299  and  _300
REMARK  125  A    between atoms: _309  and  _311
REMARK  126  A    between atoms: _311  and  _312
REMARK  127  A    between atoms: _311  and  _314
REMARK  128  A    between atoms: _314  and  _315
REMARK  129  A    between atoms: _318  and  _320
REMARK  130  A    between atoms: _320  and  _321
REMARK  131  A    between atoms: _320  and  _323
REMARK  132  A    between atoms: _323  and  _324
REMARK  133  A    between atoms: _327  and  _329
REMARK  134  A    between atoms: _329  and  _330
REMARK  135  A    between atoms: _329  and  _332
REMARK  136  A    between atoms: _332  and  _333
REMARK  137  A    between atoms: _336  and  _338
REMARK  138  A    between atoms: _338  and  _339
REMARK  139  A    between atoms: _338  and  _341
REMARK  140  A    between atoms: _341  and  _342
REMARK  141  A    between atoms: _345  and  _347
REMARK  142  A    between atoms: _347  and  _348
REMARK  143  A    between atoms: _350  and  _352
REMARK  144  A    between atoms: _352  and  _353
REMARK  145  A    between atoms: _356  and  _358
REMARK  146  A    between atoms: _358  and  _359
REMARK  147  A    between atoms: _358  and  _361
REMARK  148  A    between atoms: _361  and  _362
REMARK  149  A    between atoms: _365  and  _367
REMARK  150  A    between atoms: _367  and  _368
REMARK  151  A    between atoms: _367  and  _370
REMARK  152  A    between atoms: _370  and  _371
REMARK  153  A    between atoms: _374  and  _376
REMARK  154  A    between atoms: _376  and  _377
REMARK  155  A    between atoms: _376  and  _379
REMARK  156  A    between atoms: _379  and  _380
REMARK  157  A    between atoms: _383  and  _385
REMARK  158  A    between atoms: _385  and  _386
REMARK  159  A    between atoms: _385  and  _388
REMARK  160  A    between atoms: _388  and  _389
REMARK  161  A    between atoms: _392  and  _394
REMARK  162  A    between atoms: _394  and  _395
REMARK  163  A    between atoms: _394  and  _397
REMARK  164  A    between atoms: _397  and  _398
REMARK  165  A    between atoms: _401  and  _403
REMARK  166  A    between atoms: _403  and  _404
REMARK  167  A    between atoms: _403  and  _406
REMARK  168  A    between atoms: _406  and  _407
REMARK  169  A    between atoms: _407  and  _408
REMARK  170  A    between atoms: _408  and  _409
REMARK  171  A    between atoms: _409  and  _410
REMARK  172  A    between atoms: _414  and  _416
REMARK  173  A    between atoms: _416  and  _417
REMARK  174  A    between atoms: _416  and  _419
REMARK  175  A    between atoms: _419  and  _420
REMARK  176  A    between atoms: _420  and  _421
REMARK  177  A    between atoms: _423  and  _425
REMARK  178  A    between atoms: _425  and  _426
REMARK  179  A    between atoms: _425  and  _428
REMARK  180  A    between atoms: _428  and  _429
REMARK  181  A    between atoms: _432  and  _434
REMARK  182  A    between atoms: _434  and  _435
REMARK  183  A    between atoms: _437  and  _439
REMARK  184  A    between atoms: _439  and  _440
REMARK  185  A    between atoms: _442  and  _444
REMARK  186  A    between atoms: _444  and  _445
REMARK  187  A    between atoms: _444  and  _447
REMARK  188  A    between atoms: _447  and  _448
REMARK  189  A    between atoms: _451  and  _453
REMARK  190  A    between atoms: _453  and  _454
REMARK  191  A    between atoms: _456  and  _458
REMARK  192  A    between atoms: _458  and  _459
REMARK  193  A    between atoms: _461  and  _463
REMARK  194  A    between atoms: _463  and  _464
REMARK  195  A    between atoms: _463  and  _466
REMARK  196  A    between atoms: _466  and  _467
REMARK  197  A    between atoms: _473  and  _475
REMARK  198  A    between atoms: _475  and  _476
REMARK  199  A    between atoms: _475  and  _478
REMARK  200  A    between atoms: _478  and  _479
REMARK  201  A    between atoms: _482  and  _484
REMARK  202  A    between atoms: _484  and  _485
REMARK  203  A    between atoms: _484  and  _487
REMARK  204  A    between atoms: _490  and  _492
REMARK  205  A    between atoms: _492  and  _493
REMARK  206  A    between atoms: _492  and  _495
REMARK  207  A    between atoms: _495  and  _496
REMARK  208  A    between atoms: _500  and  _501
REMARK  209  A    between atoms: _506  and  _508
REMARK  210  A    between atoms: _508  and  _509
REMARK  211  A    between atoms: _508  and  _511
REMARK  212  A    between atoms: _511  and  _512
REMARK  213  A    between atoms: _516  and  _517
REMARK  214  A    between atoms: _522  and  _524
REMARK  215  A    between atoms: _524  and  _525
REMARK  216  A    between atoms: _524  and  _527
REMARK  217  A    between atoms: _530  and  _532
REMARK  218  A    between atoms: _532  and  _533
REMARK  219  A    between atoms: _532  and  _535
REMARK  220  A    between atoms: _535  and  _536
REMARK  221  A    between atoms: _541  and  _543
REMARK  222  A    between atoms: _543  and  _544
REMARK  223  A    between atoms: _543  and  _546
REMARK  224  A    between atoms: _546  and  _547
REMARK  225  A    between atoms: _550  and  _552
REMARK  226  A    between atoms: _552  and  _553
REMARK  227  A    between atoms: _552  and  _555
REMARK  228  A    between atoms: _555  and  _556
REMARK  229  A    between atoms: _559  and  _561
REMARK  230  A    between atoms: _561  and  _562
REMARK  231  A    between atoms: _564  and  _566
REMARK  232  A    between atoms: _566  and  _567
REMARK  233  A    between atoms: _566  and  _569
REMARK  234  A    between atoms: _569  and  _570
REMARK  235  A    between atoms: _570  and  _571
REMARK  236  A    between atoms: _571  and  _572
REMARK  237  A    between atoms: _581  and  _583
REMARK  238  A    between atoms: _583  and  _584
REMARK  239  A    between atoms: _583  and  _586
REMARK  240  A    between atoms: _586  and  _587
REMARK                            x       y       z     vdW  Elec       q    Type
REMARK                         _______ _______ _______ _____ _____    ______ ____
ROOT
ATOM      1  O   HOH     1      20.764  28.038  18.371  0.00  0.00    +0.000 OA
ENDROOT
TORSDOF 0
REMARK  Name = ../refined-set-2016/3nu4/3nu4_pocket.pdb
REMARK  240 active torsions:
REMARK  status: ('A' for Active; 'I' for Inactive)
REMARK    1  A    between atoms: _1  and  _3
REMARK    2  A    between atoms: _3  and  _4
REMARK    3  A    between atoms: _3  and  _6
REMARK    4  A    between atoms: _6  and  _7
REMARK    5  A    between atoms: _7  and  _8
REMARK    6  A    between atoms: _8  and  _9
REMARK    7  A    between atoms: _18  and  _20
REMARK    8  A    between atoms: _20  and  _21
REMARK    9  A    between atoms: _20  and  _23
REMARK   10  A    between atoms: _23  and  _24
REMARK   11  A    between atoms: _27  and  _29
REMARK   12  A    between atoms: _29  and  _30
REMARK   13  A    between atoms: _29  and  _32
REMARK   14  A    between atoms: _32  and  _33
REMARK   15  A    between atoms: _36  and  _38
REMARK   16  A    between atoms: _38  and  _39
REMARK   17  A    between atoms: _38  and  _41
REMARK   18  A    between atoms: _41  and  _42
REMARK   19  A    between atoms: _45  and  _47
REMARK   20  A    between atoms: _47  and  _48
REMARK   21  A    between atoms: _47  and  _50
REMARK   22  A    between atoms: _50  and  _51
REMARK   23  A    between atoms: _54  and  _56
REMARK   24  A    between atoms: _56  and  _57
REMARK   25  A    between atoms: _59  and  _61
REMARK   26  A    between atoms: _61  and  _62
REMARK   27  A    between atoms: _65  and  _67
REMARK   28  A    between atoms: _67  and  _68
REMARK   29  A    between atoms: _67  and  _70
REMARK   30  A    between atoms: _70  and  _71
REMARK   31  A    between atoms: _74  and  _76
REMARK   32  A    between atoms: _76  and  _77
REMARK   33  A    between atoms: _76  and  _79
REMARK   34  A    between atoms: _79  and  _80
REMARK   35  A    between atoms: _83  and  _85
REMARK   36  A    between atoms: _85  and  _86
REMARK   37  A    between atoms: _85  and  _88
REMARK   38  A    between atoms: _88  and  _89
REMARK   39  A    between atoms: _92  and  _94
REMARK   40  A    between atoms: _94  and  _95
REMARK   41  A    between atoms: _94  and  _97
REMARK   42  A    between atoms: _97  and  _98
REMARK   43  A    between atoms: _101  and  _103
REMARK   44  A    between atoms: _103  and  _104
REMARK   45  A    between atoms: _103  and  _106
REMARK   46  A    between atoms: _106  and  _107
REMARK   47  A    between atoms: _107  and  _108
REMARK   48  A    between atoms: _108  and  _109
REMARK   49  A    between atoms: _109  and  _110
REMARK   50  A    between atoms: _114  and  _116
REMARK   51  A    between atoms: _116  and  _117
REMARK   52  A    between atoms: _116  and  _119
REMARK   53  A    between atoms: _119  and  _120
REMARK   54  A    between atoms: _120  and  _121
REMARK   55  A    between atoms: _123  and  _125
REMARK   56  A    between atoms: _125  and  _126
REMARK   57  A    between atoms: _125  and  _128
REMARK   58  A    between atoms: _128  and  _129
REMARK   59  A    between atoms: _132  and  _134
REMARK   60  A    between atoms: _134  and  _135
REMARK   61  A    between atoms: _137  and  _139
REMARK   62  A    between atoms: _139  and  _140
REMARK   63  A    between atoms: _142  and  _144
REMARK   64  A    between atoms: _144  and  _145
REMARK   65  A    between atoms: _144  and  _147
REMARK   66  A    between atoms: _147  and  _148
REMARK   67  A    between atoms: _151  and  _153
REMARK   68  A    between atoms: _153  and  _154
REMARK   69  A    between atoms: _156  and  _158
REMARK   70  A    between atoms: _158  and  _159
REMARK   71  A    between atoms: _161  and  _163
REMARK   72  A    between atoms: _163  and  _164
REMARK   73  A    between atoms: _163  and  _166
REMARK   74  A    between atoms: _166  and  _167
REMARK   75  A    between atoms: _173  and  _175
REMARK   76  A    between atoms: _175  and  _176
REMARK   77  A    between atoms: _175  and  _178
REMARK   78  A    between atoms: _178  and  _179
REMARK   79  A    between atoms: _182  and  _184
REMARK   80  A    between atoms: _184  and  _185
REMARK   81  A    between atoms: _184  and  _187
REMARK   82  A    between atoms: _190  and  _192
REMARK   83  A    between atoms: _192  and  _193
REMARK   84  A    between atoms: _192  and  _195
REMARK   85  A    between atoms: _195  and  _196
REMARK   86  A    between atoms: _200  and  _201
REMARK   87  A    between atoms: _206  and  _208
REMARK   88  A    between atoms: _208  and  _209
REMARK   89  A    between atoms: _208  and  _211
REMARK   90  A    between atoms: _211  and  _212
REMARK   91  A    between atoms: _216  and  _217
REMARK   92  A    between atoms: _222  and  _224
REMARK   93  A    between atoms: _224  and  _225
REMARK   94  A    between atoms: _224  and  _227
REMARK   95  A    between atoms: _230  and  _232
REMARK   96  A    between atoms: _232  and  _233
REMARK   97  A    between atoms: _232  and  _235
REMARK   98  A    between atoms: _235  and  _236
REMARK   99  A    between atoms: _241  and  _243
REMARK  100  A    between atoms: _243  and  _244
REMARK  101  A    between atoms: _243  and  _246
REMARK  102  A    between atoms: _246  and  _247
REMARK  103  A    between atoms: _250  and  _252
REMARK  104  A    between atoms: _252  and  _253
REMARK  105  A    between atoms: _252  and  _255
REMARK  106  A    between atoms: _255  and  _256
REMARK  107  A    between atoms: _259  and  _261
REMARK  108  A    between atoms: _261  and  _262
REMARK  109  A    between atoms: _264  and  _266
REMARK  110  A    between atoms: _266  and  _267
REMARK  111  A    between atoms: _266  and  _269
REMARK  112  A    between atoms: _269  and  _270
REMARK  113  A    between atoms: _270  and  _271
REMARK  114  A    between atoms: _271  and  _272
REMARK  115  A    between atoms: _281  and  _283
REMARK  116  A    between atoms: _283  and  _284
REMARK  117  A    between atoms: _283  and  _286
REMARK  118  A    between atoms: _286  and  _287
REMARK  119  A    between atoms: _292  and  _294
REMARK  120  A    between atoms: _294  and  _295
REMARK  121  A    between atoms: _294  and  _297
REMARK  122  A    between atoms: _297  and  _298
REMARK  123  A    between atoms: _298  and  _299
REMARK  124  A    between atoms: _299  and  _300
REMARK  125  A    between atoms: _309  and  _311
REMARK  126  A    between atoms: _311  and  _312
REMARK  127  A    between atoms: _311  and  _314
REMARK  128  A    between atoms: _314  and  _315
REMARK  129  A    between atoms: _318  and  _320
REMARK  130  A    between atoms: _320  and  _321
REMARK  131  A    between atoms: _320  and  _323
REMARK  132  A    between atoms: _323  and  _324
REMARK  133  A    between atoms: _327  and  _329
REMARK  134  A    between atoms: _329  and  _330
REMARK  135  A    between atoms: _329  and  _332
REMARK  136  A    between atoms: _332  and  _333
REMARK  137  A    between atoms: _336  and  _338
REMARK  138  A    between atoms: _338  and  _339
REMARK  139  A    between atoms: _338  and  _341
REMARK  140  A    between atoms: _341  and  _342
REMARK  141  A    between atoms: _345  and  _347
REMARK  142  A    between atoms: _347  and  _348
REMARK  143  A    between atoms: _350  and  _352
REMARK  144  A    between atoms: _352  and  _353
REMARK  145  A    between atoms: _356  and  _358
REMARK  146  A    between atoms: _358  and  _359
REMARK  147  A    between atoms: _358  and  _361
REMARK  148  A    between atoms: _361  and  _362
REMARK  149  A    between atoms: _365  and  _367
REMARK  150  A    between atoms: _367  and  _368
REMARK  151  A    between atoms: _367  and  _370
REMARK  152  A    between atoms: _370  and  _371
REMARK  153  A    between atoms: _374  and  _376
REMARK  154  A    between atoms: _376  and  _377
REMARK  155  A    between atoms: _376  and  _379
REMARK  156  A    between atoms: _379  and  _380
REMARK  157  A    between atoms: _383  and  _385
REMARK  158  A    between atoms: _385  and  _386
REMARK  159  A    between atoms: _385  and  _388
REMARK  160  A    between atoms: _388  and  _389
REMARK  161  A    between atoms: _392  and  _394
REMARK  162  A    between atoms: _394  and  _395
REMARK  163  A    between atoms: _394  and  _397
REMARK  164  A    between atoms: _397  and  _398
REMARK  165  A    between atoms: _401  and  _403
REMARK  166  A    between atoms: _403  and  _404
REMARK  167  A    between atoms: _403  and  _406
REMARK  168  A    between atoms: _406  and  _407
REMARK  169  A    between atoms: _407  and  _408
REMARK  170  A    between atoms: _408  and  _409
REMARK  171  A    between atoms: _409  and  _410
REMARK  172  A    between atoms: _414  and  _416
REMARK  173  A    between atoms: _416  and  _417
REMARK  174  A    between atoms: _416  and  _419
REMARK  175  A    between atoms: _419  and  _420
REMARK  176  A    between atoms: _420  and  _421
REMARK  177  A    between atoms: _423  and  _425
REMARK  178  A    between atoms: _425  and  _426
REMARK  179  A    between atoms: _425  and  _428
REMARK  180  A    between atoms: _428  and  _429
REMARK  181  A    between atoms: _432  and  _434
REMARK  182  A    between atoms: _434  and  _435
REMARK  183  A    between atoms: _437  and  _439
REMARK  184  A    between atoms: _439  and  _440
REMARK  185  A    between atoms: _442  and  _444
REMARK  186  A    between atoms: _444  and  _445
REMARK  187  A    between atoms: _444  and  _447
REMARK  188  A    between atoms: _447  and  _448
REMARK  189  A    between atoms: _451  and  _453
REMARK  190  A    between atoms: _453  and  _454
REMARK  191  A    between atoms: _456  and  _458
REMARK  192  A    between atoms: _458  and  _459
REMARK  193  A    between atoms: _461  and  _463
REMARK  194  A    between atoms: _463  and  _464
REMARK  195  A    between atoms: _463  and  _466
REMARK  196  A    between atoms: _466  and  _467
REMARK  197  A    between atoms: _473  and  _475
REMARK  198  A    between atoms: _475  and  _476
REMARK  199  A    between atoms: _475  and  _478
REMARK  200  A    between atoms: _478  and  _479
REMARK  201  A    between atoms: _482  and  _484
REMARK  202  A    between atoms: _484  and  _485
REMARK  203  A    between atoms: _484  and  _487
REMARK  204  A    between atoms: _490  and  _492
REMARK  205  A    between atoms: _492  and  _493
REMARK  206  A    between atoms: _492  and  _495
REMARK  207  A    between atoms: _495  and  _496
REMARK  208  A    between atoms: _500  and  _501
REMARK  209  A    between atoms: _506  and  _508
REMARK  210  A    between atoms: _508  and  _509
REMARK  211  A    between atoms: _508  and  _511
REMARK  212  A    between atoms: _511  and  _512
REMARK  213  A    between atoms: _516  and  _517
REMARK  214  A    between atoms: _522  and  _524
REMARK  215  A    between atoms: _524  and  _525
REMARK  216  A    between atoms: _524  and  _527
REMARK  217  A    between atoms: _530  and  _532
REMARK  218  A    between atoms: _532  and  _533
REMARK  219  A    between atoms: _532  and  _535
REMARK  220  A    between atoms: _535  and  _536
REMARK  221  A    between atoms: _541  and  _543
REMARK  222  A    between atoms: _543  and  _544
REMARK  223  A    between atoms: _543  and  _546
REMARK  224  A    between atoms: _546  and  _547
REMARK  225  A    between atoms: _550  and  _552
REMARK  226  A    between atoms: _552  and  _553
REMARK  227  A    between atoms: _552  and  _555
REMARK  228  A    between atoms: _555  and  _556
REMARK  229  A    between atoms: _559  and  _561
REMARK  230  A    between atoms: _561  and  _562
REMARK  231  A    between atoms: _564  and  _566
REMARK  232  A    between atoms: _566  and  _567
REMARK  233  A    between atoms: _566  and  _569
REMARK  234  A    between atoms: _569  and  _570
REMARK  235  A    between atoms: _570  and  _571
REMARK  236  A    between atoms: _571  and  _572
REMARK  237  A    between atoms: _581  and  _583
REMARK  238  A    between atoms: _583  and  _584
REMARK  239  A    between atoms: _583  and  _586
REMARK  240  A    between atoms: _586  and  _587
REMARK                            x       y       z     vdW  Elec       q    Type
REMARK                         _______ _______ _______ _____ _____    ______ ____
ROOT
ATOM      1  O   HOH     1      10.180  17.121  13.975  0.00  0.00    +0.000 OA
ENDROOT
TORSDOF 0
REMARK  Name = ../refined-set-2016/3nu4/3nu4_pocket.pdb
REMARK  240 active torsions:
REMARK  status: ('A' for Active; 'I' for Inactive)
REMARK    1  A    between atoms: _1  and  _3
REMARK    2  A    between atoms: _3  and  _4
REMARK    3  A    between atoms: _3  and  _6
REMARK    4  A    between atoms: _6  and  _7
REMARK    5  A    between atoms: _7  and  _8
REMARK    6  A    between atoms: _8  and  _9
REMARK    7  A    between atoms: _18  and  _20
REMARK    8  A    between atoms: _20  and  _21
REMARK    9  A    between atoms: _20  and  _23
REMARK   10  A    between atoms: _23  and  _24
REMARK   11  A    between atoms: _27  and  _29
REMARK   12  A    between atoms: _29  and  _30
REMARK   13  A    between atoms: _29  and  _32
REMARK   14  A    between atoms: _32  and  _33
REMARK   15  A    between atoms: _36  and  _38
REMARK   16  A    between atoms: _38  and  _39
REMARK   17  A    between atoms: _38  and  _41
REMARK   18  A    between atoms: _41  and  _42
REMARK   19  A    between atoms: _45  and  _47
REMARK   20  A    between atoms: _47  and  _48
REMARK   21  A    between atoms: _47  and  _50
REMARK   22  A    between atoms: _50  and  _51
REMARK   23  A    between atoms: _54  and  _56
REMARK   24  A    between atoms: _56  and  _57
REMARK   25  A    between atoms: _59  and  _61
REMARK   26  A    between atoms: _61  and  _62
REMARK   27  A    between atoms: _65  and  _67
REMARK   28  A    between atoms: _67  and  _68
REMARK   29  A    between atoms: _67  and  _70
REMARK   30  A    between atoms: _70  and  _71
REMARK   31  A    between atoms: _74  and  _76
REMARK   32  A    between atoms: _76  and  _77
REMARK   33  A    between atoms: _76  and  _79
REMARK   34  A    between atoms: _79  and  _80
REMARK   35  A    between atoms: _83  and  _85
REMARK   36  A    between atoms: _85  and  _86
REMARK   37  A    between atoms: _85  and  _88
REMARK   38  A    between atoms: _88  and  _89
REMARK   39  A    between atoms: _92  and  _94
REMARK   40  A    between atoms: _94  and  _95
REMARK   41  A    between atoms: _94  and  _97
REMARK   42  A    between atoms: _97  and  _98
REMARK   43  A    between atoms: _101  and  _103
REMARK   44  A    between atoms: _103  and  _104
REMARK   45  A    between atoms: _103  and  _106
REMARK   46  A    between atoms: _106  and  _107
REMARK   47  A    between atoms: _107  and  _108
REMARK   48  A    between atoms: _108  and  _109
REMARK   49  A    between atoms: _109  and  _110
REMARK   50  A    between atoms: _114  and  _116
REMARK   51  A    between atoms: _116  and  _117
REMARK   52  A    between atoms: _116  and  _119
REMARK   53  A    between atoms: _119  and  _120
REMARK   54  A    between atoms: _120  and  _121
REMARK   55  A    between atoms: _123  and  _125
REMARK   56  A    between atoms: _125  and  _126
REMARK   57  A    between atoms: _125  and  _128
REMARK   58  A    between atoms: _128  and  _129
REMARK   59  A    between atoms: _132  and  _134
REMARK   60  A    between atoms: _134  and  _135
REMARK   61  A    between atoms: _137  and  _139
REMARK   62  A    between atoms: _139  and  _140
REMARK   63  A    between atoms: _142  and  _144
REMARK   64  A    between atoms: _144  and  _145
REMARK   65  A    between atoms: _144  and  _147
REMARK   66  A    between atoms: _147  and  _148
REMARK   67  A    between atoms: _151  and  _153
REMARK   68  A    between atoms: _153  and  _154
REMARK   69  A    between atoms: _156  and  _158
REMARK   70  A    between atoms: _158  and  _159
REMARK   71  A    between atoms: _161  and  _163
REMARK   72  A    between atoms: _163  and  _164
REMARK   73  A    between atoms: _163  and  _166
REMARK   74  A    between atoms: _166  and  _167
REMARK   75  A    between atoms: _173  and  _175
REMARK   76  A    between atoms: _175  and  _176
REMARK   77  A    between atoms: _175  and  _178
REMARK   78  A    between atoms: _178  and  _179
REMARK   79  A    between atoms: _182  and  _184
REMARK   80  A    between atoms: _184  and  _185
REMARK   81  A    between atoms: _184  and  _187
REMARK   82  A    between atoms: _190  and  _192
REMARK   83  A    between atoms: _192  and  _193
REMARK   84  A    between atoms: _192  and  _195
REMARK   85  A    between atoms: _195  and  _196
REMARK   86  A    between atoms: _200  and  _201
REMARK   87  A    between atoms: _206  and  _208
REMARK   88  A    between atoms: _208  and  _209
REMARK   89  A    between atoms: _208  and  _211
REMARK   90  A    between atoms: _211  and  _212
REMARK   91  A    between atoms: _216  and  _217
REMARK   92  A    between atoms: _222  and  _224
REMARK   93  A    between atoms: _224  and  _225
REMARK   94  A    between atoms: _224  and  _227
REMARK   95  A    between atoms: _230  and  _232
REMARK   96  A    between atoms: _232  and  _233
REMARK   97  A    between atoms: _232  and  _235
REMARK   98  A    between atoms: _235  and  _236
REMARK   99  A    between atoms: _241  and  _243
REMARK  100  A    between atoms: _243  and  _244
REMARK  101  A    between atoms: _243  and  _246
REMARK  102  A    between atoms: _246  and  _247
REMARK  103  A    between atoms: _250  and  _252
REMARK  104  A    between atoms: _252  and  _253
REMARK  105  A    between atoms: _252  and  _255
REMARK  106  A    between atoms: _255  and  _256
REMARK  107  A    between atoms: _259  and  _261
REMARK  108  A    between atoms: _261  and  _262
REMARK  109  A    between atoms: _264  and  _266
REMARK  110  A    between atoms: _266  and  _267
REMARK  111  A    between atoms: _266  and  _269
REMARK  112  A    between atoms: _269  and  _270
REMARK  113  A    between atoms: _270  and  _271
REMARK  114  A    between atoms: _271  and  _272
REMARK  115  A    between atoms: _281  and  _283
REMARK  116  A    between atoms: _283  and  _284
REMARK  117  A    between atoms: _283  and  _286
REMARK  118  A    between atoms: _286  and  _287
REMARK  119  A    between atoms: _292  and  _294
REMARK  120  A    between atoms: _294  and  _295
REMARK  121  A    between atoms: _294  and  _297
REMARK  122  A    between atoms: _297  and  _298
REMARK  123  A    between atoms: _298  and  _299
REMARK  124  A    between atoms: _299  and  _300
REMARK  125  A    between atoms: _309  and  _311
REMARK  126  A    between atoms: _311  and  _312
REMARK  127  A    between atoms: _311  and  _314
REMARK  128  A    between atoms: _314  and  _315
REMARK  129  A    between atoms: _318  and  _320
REMARK  130  A    between atoms: _320  and  _321
REMARK  131  A    between atoms: _320  and  _323
REMARK  132  A    between atoms: _323  and  _324
REMARK  133  A    between atoms: _327  and  _329
REMARK  134  A    between atoms: _329  and  _330
REMARK  135  A    between atoms: _329  and  _332
REMARK  136  A    between atoms: _332  and  _333
REMARK  137  A    between atoms: _336  and  _338
REMARK  138  A    between atoms: _338  and  _339
REMARK  139  A    between atoms: _338  and  _341
REMARK  140  A    between atoms: _341  and  _342
REMARK  141  A    between atoms: _345  and  _347
REMARK  142  A    between atoms: _347  and  _348
REMARK  143  A    between atoms: _350  and  _352
REMARK  144  A    between atoms: _352  and  _353
REMARK  145  A    between atoms: _356  and  _358
REMARK  146  A    between atoms: _358  and  _359
REMARK  147  A    between atoms: _358  and  _361
REMARK  148  A    between atoms: _361  and  _362
REMARK  149  A    between atoms: _365  and  _367
REMARK  150  A    between atoms: _367  and  _368
REMARK  151  A    between atoms: _367  and  _370
REMARK  152  A    between atoms: _370  and  _371
REMARK  153  A    between atoms: _374  and  _376
REMARK  154  A    between atoms: _376  and  _377
REMARK  155  A    between atoms: _376  and  _379
REMARK  156  A    between atoms: _379  and  _380
REMARK  157  A    between atoms: _383  and  _385
REMARK  158  A    between atoms: _385  and  _386
REMARK  159  A    between atoms: _385  and  _388
REMARK  160  A    between atoms: _388  and  _389
REMARK  161  A    between atoms: _392  and  _394
REMARK  162  A    between atoms: _394  and  _395
REMARK  163  A    between atoms: _394  and  _397
REMARK  164  A    between atoms: _397  and  _398
REMARK  165  A    between atoms: _401  and  _403
REMARK  166  A    between atoms: _403  and  _404
REMARK  167  A    between atoms: _403  and  _406
REMARK  168  A    between atoms: _406  and  _407
REMARK  169  A    between atoms: _407  and  _408
REMARK  170  A    between atoms: _408  and  _409
REMARK  171  A    between atoms: _409  and  _410
REMARK  172  A    between atoms: _414  and  _416
REMARK  173  A    between atoms: _416  and  _417
REMARK  174  A    between atoms: _416  and  _419
REMARK  175  A    between atoms: _419  and  _420
REMARK  176  A    between atoms: _420  and  _421
REMARK  177  A    between atoms: _423  and  _425
REMARK  178  A    between atoms: _425  and  _426
REMARK  179  A    between atoms: _425  and  _428
REMARK  180  A    between atoms: _428  and  _429
REMARK  181  A    between atoms: _432  and  _434
REMARK  182  A    between atoms: _434  and  _435
REMARK  183  A    between atoms: _437  and  _439
REMARK  184  A    between atoms: _439  and  _440
REMARK  185  A    between atoms: _442  and  _444
REMARK  186  A    between atoms: _444  and  _445
REMARK  187  A    between atoms: _444  and  _447
REMARK  188  A    between atoms: _447  and  _448
REMARK  189  A    between atoms: _451  and  _453
REMARK  190  A    between atoms: _453  and  _454
REMARK  191  A    between atoms: _456  and  _458
REMARK  192  A    between atoms: _458  and  _459
REMARK  193  A    between atoms: _461  and  _463
REMARK  194  A    between atoms: _463  and  _464
REMARK  195  A    between atoms: _463  and  _466
REMARK  196  A    between atoms: _466  and  _467
REMARK  197  A    between atoms: _473  and  _475
REMARK  198  A    between atoms: _475  and  _476
REMARK  199  A    between atoms: _475  and  _478
REMARK  200  A    between atoms: _478  and  _479
REMARK  201  A    between atoms: _482  and  _484
REMARK  202  A    between atoms: _484  and  _485
REMARK  203  A    between atoms: _484  and  _487
REMARK  204  A    between atoms: _490  and  _492
REMARK  205  A    between atoms: _492  and  _493
REMARK  206  A    between atoms: _492  and  _495
REMARK  207  A    between atoms: _495  and  _496
REMARK  208  A    between atoms: _500  and  _501
REMARK  209  A    between atoms: _506  and  _508
REMARK  210  A    between atoms: _508  and  _509
REMARK  211  A    between atoms: _508  and  _511
REMARK  212  A    between atoms: _511  and  _512
REMARK  213  A    between atoms: _516  and  _517
REMARK  214  A    between atoms: _522  and  _524
REMARK  215  A    between atoms: _524  and  _525
REMARK  216  A    between atoms: _524  and  _527
REMARK  217  A    between atoms: _530  and  _532
REMARK  218  A    between atoms: _532  and  _533
REMARK  219  A    between atoms: _532  and  _535
REMARK  220  A    between atoms: _535  and  _536
REMARK  221  A    between atoms: _541  and  _543
REMARK  222  A    between atoms: _543  and  _544
REMARK  223  A    between atoms: _543  and  _546
REMARK  224  A    between atoms: _546  and  _547
REMARK  225  A    between atoms: _550  and  _552
REMARK  226  A    between atoms: _552  and  _553
REMARK  227  A    between atoms: _552  and  _555
REMARK  228  A    between atoms: _555  and  _556
REMARK  229  A    between atoms: _559  and  _561
REMARK  230  A    between atoms: _561  and  _562
REMARK  231  A    between atoms: _564  and  _566
REMARK  232  A    between atoms: _566  and  _567
REMARK  233  A    between atoms: _566  and  _569
REMARK  234  A    between atoms: _569  and  _570
REMARK  235  A    between atoms: _570  and  _571
REMARK  236  A    between atoms: _571  and  _572
REMARK  237  A    between atoms: _581  and  _583
REMARK  238  A    between atoms: _583  and  _584
REMARK  239  A    between atoms: _583  and  _586
REMARK  240  A    between atoms: _586  and  _587
REMARK                            x       y       z     vdW  Elec       q    Type
REMARK                         _______ _______ _______ _____ _____    ______ ____
ROOT
ATOM      1  O   HOH     1      25.151  33.689  11.455  0.00  0.00    +0.000 OA
ENDROOT
TORSDOF 0
REMARK  Name = ../refined-set-2016/3nu4/3nu4_pocket.pdb
REMARK  240 active torsions:
REMARK  status: ('A' for Active; 'I' for Inactive)
REMARK    1  A    between atoms: _1  and  _3
REMARK    2  A    between atoms: _3  and  _4
REMARK    3  A    between atoms: _3  and  _6
REMARK    4  A    between atoms: _6  and  _7
REMARK    5  A    between atoms: _7  and  _8
REMARK    6  A    between atoms: _8  and  _9
REMARK    7  A    between atoms: _18  and  _20
REMARK    8  A    between atoms: _20  and  _21
REMARK    9  A    between atoms: _20  and  _23
REMARK   10  A    between atoms: _23  and  _24
REMARK   11  A    between atoms: _27  and  _29
REMARK   12  A    between atoms: _29  and  _30
REMARK   13  A    between atoms: _29  and  _32
REMARK   14  A    between atoms: _32  and  _33
REMARK   15  A    between atoms: _36  and  _38
REMARK   16  A    between atoms: _38  and  _39
REMARK   17  A    between atoms: _38  and  _41
REMARK   18  A    between atoms: _41  and  _42
REMARK   19  A    between atoms: _45  and  _47
REMARK   20  A    between atoms: _47  and  _48
REMARK   21  A    between atoms: _47  and  _50
REMARK   22  A    between atoms: _50  and  _51
REMARK   23  A    between atoms: _54  and  _56
REMARK   24  A    between atoms: _56  and  _57
REMARK   25  A    between atoms: _59  and  _61
REMARK   26  A    between atoms: _61  and  _62
REMARK   27  A    between atoms: _65  and  _67
REMARK   28  A    between atoms: _67  and  _68
REMARK   29  A    between atoms: _67  and  _70
REMARK   30  A    between atoms: _70  and  _71
REMARK   31  A    between atoms: _74  and  _76
REMARK   32  A    between atoms: _76  and  _77
REMARK   33  A    between atoms: _76  and  _79
REMARK   34  A    between atoms: _79  and  _80
REMARK   35  A    between atoms: _83  and  _85
REMARK   36  A    between atoms: _85  and  _86
REMARK   37  A    between atoms: _85  and  _88
REMARK   38  A    between atoms: _88  and  _89
REMARK   39  A    between atoms: _92  and  _94
REMARK   40  A    between atoms: _94  and  _95
REMARK   41  A    between atoms: _94  and  _97
REMARK   42  A    between atoms: _97  and  _98
REMARK   43  A    between atoms: _101  and  _103
REMARK   44  A    between atoms: _103  and  _104
REMARK   45  A    between atoms: _103  and  _106
REMARK   46  A    between atoms: _106  and  _107
REMARK   47  A    between atoms: _107  and  _108
REMARK   48  A    between atoms: _108  and  _109
REMARK   49  A    between atoms: _109  and  _110
REMARK   50  A    between atoms: _114  and  _116
REMARK   51  A    between atoms: _116  and  _117
REMARK   52  A    between atoms: _116  and  _119
REMARK   53  A    between atoms: _119  and  _120
REMARK   54  A    between atoms: _120  and  _121
REMARK   55  A    between atoms: _123  and  _125
REMARK   56  A    between atoms: _125  and  _126
REMARK   57  A    between atoms: _125  and  _128
REMARK   58  A    between atoms: _128  and  _129
REMARK   59  A    between atoms: _132  and  _134
REMARK   60  A    between atoms: _134  and  _135
REMARK   61  A    between atoms: _137  and  _139
REMARK   62  A    between atoms: _139  and  _140
REMARK   63  A    between atoms: _142  and  _144
REMARK   64  A    between atoms: _144  and  _145
REMARK   65  A    between atoms: _144  and  _147
REMARK   66  A    between atoms: _147  and  _148
REMARK   67  A    between atoms: _151  and  _153
REMARK   68  A    between atoms: _153  and  _154
REMARK   69  A    between atoms: _156  and  _158
REMARK   70  A    between atoms: _158  and  _159
REMARK   71  A    between atoms: _161  and  _163
REMARK   72  A    between atoms: _163  and  _164
REMARK   73  A    between atoms: _163  and  _166
REMARK   74  A    between atoms: _166  and  _167
REMARK   75  A    between atoms: _173  and  _175
REMARK   76  A    between atoms: _175  and  _176
REMARK   77  A    between atoms: _175  and  _178
REMARK   78  A    between atoms: _178  and  _179
REMARK   79  A    between atoms: _182  and  _184
REMARK   80  A    between atoms: _184  and  _185
REMARK   81  A    between atoms: _184  and  _187
REMARK   82  A    between atoms: _190  and  _192
REMARK   83  A    between atoms: _192  and  _193
REMARK   84  A    between atoms: _192  and  _195
REMARK   85  A    between atoms: _195  and  _196
REMARK   86  A    between atoms: _200  and  _201
REMARK   87  A    between atoms: _206  and  _208
REMARK   88  A    between atoms: _208  and  _209
REMARK   89  A    between atoms: _208  and  _211
REMARK   90  A    between atoms: _211  and  _212
REMARK   91  A    between atoms: _216  and  _217
REMARK   92  A    between atoms: _222  and  _224
REMARK   93  A    between atoms: _224  and  _225
REMARK   94  A    between atoms: _224  and  _227
REMARK   95  A    between atoms: _230  and  _232
REMARK   96  A    between atoms: _232  and  _233
REMARK   97  A    between atoms: _232  and  _235
REMARK   98  A    between atoms: _235  and  _236
REMARK   99  A    between atoms: _241  and  _243
REMARK  100  A    between atoms: _243  and  _244
REMARK  101  A    between atoms: _243  and  _246
REMARK  102  A    between atoms: _246  and  _247
REMARK  103  A    between atoms: _250  and  _252
REMARK  104  A    between atoms: _252  and  _253
REMARK  105  A    between atoms: _252  and  _255
REMARK  106  A    between atoms: _255  and  _256
REMARK  107  A    between atoms: _259  and  _261
REMARK  108  A    between atoms: _261  and  _262
REMARK  109  A    between atoms: _264  and  _266
REMARK  110  A    between atoms: _266  and  _267
REMARK  111  A    between atoms: _266  and  _269
REMARK  112  A    between atoms: _269  and  _270
REMARK  113  A    between atoms: _270  and  _271
REMARK  114  A    between atoms: _271  and  _272
REMARK  115  A    between atoms: _281  and  _283
REMARK  116  A    between atoms: _283  and  _284
REMARK  117  A    between atoms: _283  and  _286
REMARK  118  A    between atoms: _286  and  _287
REMARK  119  A    between atoms: _292  and  _294
REMARK  120  A    between atoms: _294  and  _295
REMARK  121  A    between atoms: _294  and  _297
REMARK  122  A    between atoms: _297  and  _298
REMARK  123  A    between atoms: _298  and  _299
REMARK  124  A    between atoms: _299  and  _300
REMARK  125  A    between atoms: _309  and  _311
REMARK  126  A    between atoms: _311  and  _312
REMARK  127  A    between atoms: _311  and  _314
REMARK  128  A    between atoms: _314  and  _315
REMARK  129  A    between atoms: _318  and  _320
REMARK  130  A    between atoms: _320  and  _321
REMARK  131  A    between atoms: _320  and  _323
REMARK  132  A    between atoms: _323  and  _324
REMARK  133  A    between atoms: _327  and  _329
REMARK  134  A    between atoms: _329  and  _330
REMARK  135  A    between atoms: _329  and  _332
REMARK  136  A    between atoms: _332  and  _333
REMARK  137  A    between atoms: _336  and  _338
REMARK  138  A    between atoms: _338  and  _339
REMARK  139  A    between atoms: _338  and  _341
REMARK  140  A    between atoms: _341  and  _342
REMARK  141  A    between atoms: _345  and  _347
REMARK  142  A    between atoms: _347  and  _348
REMARK  143  A    between atoms: _350  and  _352
REMARK  144  A    between atoms: _352  and  _353
REMARK  145  A    between atoms: _356  and  _358
REMARK  146  A    between atoms: _358  and  _359
REMARK  147  A    between atoms: _358  and  _361
REMARK  148  A    between atoms: _361  and  _362
REMARK  149  A    between atoms: _365  and  _367
REMARK  150  A    between atoms: _367  and  _368
REMARK  151  A    between atoms: _367  and  _370
REMARK  152  A    between atoms: _370  and  _371
REMARK  153  A    between atoms: _374  and  _376
REMARK  154  A    between atoms: _376  and  _377
REMARK  155  A    between atoms: _376  and  _379
REMARK  156  A    between atoms: _379  and  _380
REMARK  157  A    between atoms: _383  and  _385
REMARK  158  A    between atoms: _385  and  _386
REMARK  159  A    between atoms: _385  and  _388
REMARK  160  A    between atoms: _388  and  _389
REMARK  161  A    between atoms: _392  and  _394
REMARK  162  A    between atoms: _394  and  _395
REMARK  163  A    between atoms: _394  and  _397
REMARK  164  A    between atoms: _397  and  _398
REMARK  165  A    between atoms: _401  and  _403
REMARK  166  A    between atoms: _403  and  _404
REMARK  167  A    between atoms: _403  and  _406
REMARK  168  A    between atoms: _406  and  _407
REMARK  169  A    between atoms: _407  and  _408
REMARK  170  A    between atoms: _408  and  _409
REMARK  171  A    between atoms: _409  and  _410
REMARK  172  A    between atoms: _414  and  _416
REMARK  173  A    between atoms: _416  and  _417
REMARK  174  A    between atoms: _416  and  _419
REMARK  175  A    between atoms: _419  and  _420
REMARK  176  A    between atoms: _420  and  _421
REMARK  177  A    between atoms: _423  and  _425
REMARK  178  A    between atoms: _425  and  _426
REMARK  179  A    between atoms: _425  and  _428
REMARK  180  A    between atoms: _428  and  _429
REMARK  181  A    between atoms: _432  and  _434
REMARK  182  A    between atoms: _434  and  _435
REMARK  183  A    between atoms: _437  and  _439
REMARK  184  A    between atoms: _439  and  _440
REMARK  185  A    between atoms: _442  and  _444
REMARK  186  A    between atoms: _444  and  _445
REMARK  187  A    between atoms: _444  and  _447
REMARK  188  A    between atoms: _447  and  _448
REMARK  189  A    between atoms: _451  and  _453
REMARK  190  A    between atoms: _453  and  _454
REMARK  191  A    between atoms: _456  and  _458
REMARK  192  A    between atoms: _458  and  _459
REMARK  193  A    between atoms: _461  and  _463
REMARK  194  A    between atoms: _463  and  _464
REMARK  195  A    between atoms: _463  and  _466
REMARK  196  A    between atoms: _466  and  _467
REMARK  197  A    between atoms: _473  and  _475
REMARK  198  A    between atoms: _475  and  _476
REMARK  199  A    between atoms: _475  and  _478
REMARK  200  A    between atoms: _478  and  _479
REMARK  201  A    between atoms: _482  and  _484
REMARK  202  A    between atoms: _484  and  _485
REMARK  203  A    between atoms: _484  and  _487
REMARK  204  A    between atoms: _490  and  _492
REMARK  205  A    between atoms: _492  and  _493
REMARK  206  A    between atoms: _492  and  _495
REMARK  207  A    between atoms: _495  and  _496
REMARK  208  A    between atoms: _500  and  _501
REMARK  209  A    between atoms: _506  and  _508
REMARK  210  A    between atoms: _508  and  _509
REMARK  211  A    between atoms: _508  and  _511
REMARK  212  A    between atoms: _511  and  _512
REMARK  213  A    between atoms: _516  and  _517
REMARK  214  A    between atoms: _522  and  _524
REMARK  215  A    between atoms: _524  and  _525
REMARK  216  A    between atoms: _524  and  _527
REMARK  217  A    between atoms: _530  and  _532
REMARK  218  A    between atoms: _532  and  _533
REMARK  219  A    between atoms: _532  and  _535
REMARK  220  A    between atoms: _535  and  _536
REMARK  221  A    between atoms: _541  and  _543
REMARK  222  A    between atoms: _543  and  _544
REMARK  223  A    between atoms: _543  and  _546
REMARK  224  A    between atoms: _546  and  _547
REMARK  225  A    between atoms: _550  and  _552
REMARK  226  A    between atoms: _552  and  _553
REMARK  227  A    between atoms: _552  and  _555
REMARK  228  A    between atoms: _555  and  _556
REMARK  229  A    between atoms: _559  and  _561
REMARK  230  A    between atoms: _561  and  _562
REMARK  231  A    between atoms: _564  and  _566
REMARK  232  A    between atoms: _566  and  _567
REMARK  233  A    between atoms: _566  and  _569
REMARK  234  A    between atoms: _569  and  _570
REMARK  235  A    between atoms: _570  and  _571
REMARK  236  A    between atoms: _571  and  _572
REMARK  237  A    between atoms: _581  and  _583
REMARK  238  A    between atoms: _583  and  _584
REMARK  239  A    between atoms: _583  and  _586
REMARK  240  A    between atoms: _586  and  _587
REMARK                            x       y       z     vdW  Elec       q    Type
REMARK                         _______ _______ _______ _____ _____    ______ ____
ROOT
ATOM      1  O   HOH     1      23.516  30.333  14.024  0.00  0.00    +0.000 OA
ENDROOT
TORSDOF 0
REMARK  Name = ../refined-set-2016/3nu4/3nu4_pocket.pdb
REMARK  240 active torsions:
REMARK  status: ('A' for Active; 'I' for Inactive)
REMARK    1  A    between atoms: _1  and  _3
REMARK    2  A    between atoms: _3  and  _4
REMARK    3  A    between atoms: _3  and  _6
REMARK    4  A    between atoms: _6  and  _7
REMARK    5  A    between atoms: _7  and  _8
REMARK    6  A    between atoms: _8  and  _9
REMARK    7  A    between atoms: _18  and  _20
REMARK    8  A    between atoms: _20  and  _21
REMARK    9  A    between atoms: _20  and  _23
REMARK   10  A    between atoms: _23  and  _24
REMARK   11  A    between atoms: _27  and  _29
REMARK   12  A    between atoms: _29  and  _30
REMARK   13  A    between atoms: _29  and  _32
REMARK   14  A    between atoms: _32  and  _33
REMARK   15  A    between atoms: _36  and  _38
REMARK   16  A    between atoms: _38  and  _39
REMARK   17  A    between atoms: _38  and  _41
REMARK   18  A    between atoms: _41  and  _42
REMARK   19  A    between atoms: _45  and  _47
REMARK   20  A    between atoms: _47  and  _48
REMARK   21  A    between atoms: _47  and  _50
REMARK   22  A    between atoms: _50  and  _51
REMARK   23  A    between atoms: _54  and  _56
REMARK   24  A    between atoms: _56  and  _57
REMARK   25  A    between atoms: _59  and  _61
REMARK   26  A    between atoms: _61  and  _62
REMARK   27  A    between atoms: _65  and  _67
REMARK   28  A    between atoms: _67  and  _68
REMARK   29  A    between atoms: _67  and  _70
REMARK   30  A    between atoms: _70  and  _71
REMARK   31  A    between atoms: _74  and  _76
REMARK   32  A    between atoms: _76  and  _77
REMARK   33  A    between atoms: _76  and  _79
REMARK   34  A    between atoms: _79  and  _80
REMARK   35  A    between atoms: _83  and  _85
REMARK   36  A    between atoms: _85  and  _86
REMARK   37  A    between atoms: _85  and  _88
REMARK   38  A    between atoms: _88  and  _89
REMARK   39  A    between atoms: _92  and  _94
REMARK   40  A    between atoms: _94  and  _95
REMARK   41  A    between atoms: _94  and  _97
REMARK   42  A    between atoms: _97  and  _98
REMARK   43  A    between atoms: _101  and  _103
REMARK   44  A    between atoms: _103  and  _104
REMARK   45  A    between atoms: _103  and  _106
REMARK   46  A    between atoms: _106  and  _107
REMARK   47  A    between atoms: _107  and  _108
REMARK   48  A    between atoms: _108  and  _109
REMARK   49  A    between atoms: _109  and  _110
REMARK   50  A    between atoms: _114  and  _116
REMARK   51  A    between atoms: _116  and  _117
REMARK   52  A    between atoms: _116  and  _119
REMARK   53  A    between atoms: _119  and  _120
REMARK   54  A    between atoms: _120  and  _121
REMARK   55  A    between atoms: _123  and  _125
REMARK   56  A    between atoms: _125  and  _126
REMARK   57  A    between atoms: _125  and  _128
REMARK   58  A    between atoms: _128  and  _129
REMARK   59  A    between atoms: _132  and  _134
REMARK   60  A    between atoms: _134  and  _135
REMARK   61  A    between atoms: _137  and  _139
REMARK   62  A    between atoms: _139  and  _140
REMARK   63  A    between atoms: _142  and  _144
REMARK   64  A    between atoms: _144  and  _145
REMARK   65  A    between atoms: _144  and  _147
REMARK   66  A    between atoms: _147  and  _148
REMARK   67  A    between atoms: _151  and  _153
REMARK   68  A    between atoms: _153  and  _154
REMARK   69  A    between atoms: _156  and  _158
REMARK   70  A    between atoms: _158  and  _159
REMARK   71  A    between atoms: _161  and  _163
REMARK   72  A    between atoms: _163  and  _164
REMARK   73  A    between atoms: _163  and  _166
REMARK   74  A    between atoms: _166  and  _167
REMARK   75  A    between atoms: _173  and  _175
REMARK   76  A    between atoms: _175  and  _176
REMARK   77  A    between atoms: _175  and  _178
REMARK   78  A    between atoms: _178  and  _179
REMARK   79  A    between atoms: _182  and  _184
REMARK   80  A    between atoms: _184  and  _185
REMARK   81  A    between atoms: _184  and  _187
REMARK   82  A    between atoms: _190  and  _192
REMARK   83  A    between atoms: _192  and  _193
REMARK   84  A    between atoms: _192  and  _195
REMARK   85  A    between atoms: _195  and  _196
REMARK   86  A    between atoms: _200  and  _201
REMARK   87  A    between atoms: _206  and  _208
REMARK   88  A    between atoms: _208  and  _209
REMARK   89  A    between atoms: _208  and  _211
REMARK   90  A    between atoms: _211  and  _212
REMARK   91  A    between atoms: _216  and  _217
REMARK   92  A    between atoms: _222  and  _224
REMARK   93  A    between atoms: _224  and  _225
REMARK   94  A    between atoms: _224  and  _227
REMARK   95  A    between atoms: _230  and  _232
REMARK   96  A    between atoms: _232  and  _233
REMARK   97  A    between atoms: _232  and  _235
REMARK   98  A    between atoms: _235  and  _236
REMARK   99  A    between atoms: _241  and  _243
REMARK  100  A    between atoms: _243  and  _244
REMARK  101  A    between atoms: _243  and  _246
REMARK  102  A    between atoms: _246  and  _247
REMARK  103  A    between atoms: _250  and  _252
REMARK  104  A    between atoms: _252  and  _253
REMARK  105  A    between atoms: _252  and  _255
REMARK  106  A    between atoms: _255  and  _256
REMARK  107  A    between atoms: _259  and  _261
REMARK  108  A    between atoms: _261  and  _262
REMARK  109  A    between atoms: _264  and  _266
REMARK  110  A    between atoms: _266  and  _267
REMARK  111  A    between atoms: _266  and  _269
REMARK  112  A    between atoms: _269  and  _270
REMARK  113  A    between atoms: _270  and  _271
REMARK  114  A    between atoms: _271  and  _272
REMARK  115  A    between atoms: _281  and  _283
REMARK  116  A    between atoms: _283  and  _284
REMARK  117  A    between atoms: _283  and  _286
REMARK  118  A    between atoms: _286  and  _287
REMARK  119  A    between atoms: _292  and  _294
REMARK  120  A    between atoms: _294  and  _295
REMARK  121  A    between atoms: _294  and  _297
REMARK  122  A    between atoms: _297  and  _298
REMARK  123  A    between atoms: _298  and  _299
REMARK  124  A    between atoms: _299  and  _300
REMARK  125  A    between atoms: _309  and  _311
REMARK  126  A    between atoms: _311  and  _312
REMARK  127  A    between atoms: _311  and  _314
REMARK  128  A    between atoms: _314  and  _315
REMARK  129  A    between atoms: _318  and  _320
REMARK  130  A    between atoms: _320  and  _321
REMARK  131  A    between atoms: _320  and  _323
REMARK  132  A    between atoms: _323  and  _324
REMARK  133  A    between atoms: _327  and  _329
REMARK  134  A    between atoms: _329  and  _330
REMARK  135  A    between atoms: _329  and  _332
REMARK  136  A    between atoms: _332  and  _333
REMARK  137  A    between atoms: _336  and  _338
REMARK  138  A    between atoms: _338  and  _339
REMARK  139  A    between atoms: _338  and  _341
REMARK  140  A    between atoms: _341  and  _342
REMARK  141  A    between atoms: _345  and  _347
REMARK  142  A    between atoms: _347  and  _348
REMARK  143  A    between atoms: _350  and  _352
REMARK  144  A    between atoms: _352  and  _353
REMARK  145  A    between atoms: _356  and  _358
REMARK  146  A    between atoms: _358  and  _359
REMARK  147  A    between atoms: _358  and  _361
REMARK  148  A    between atoms: _361  and  _362
REMARK  149  A    between atoms: _365  and  _367
REMARK  150  A    between atoms: _367  and  _368
REMARK  151  A    between atoms: _367  and  _370
REMARK  152  A    between atoms: _370  and  _371
REMARK  153  A    between atoms: _374  and  _376
REMARK  154  A    between atoms: _376  and  _377
REMARK  155  A    between atoms: _376  and  _379
REMARK  156  A    between atoms: _379  and  _380
REMARK  157  A    between atoms: _383  and  _385
REMARK  158  A    between atoms: _385  and  _386
REMARK  159  A    between atoms: _385  and  _388
REMARK  160  A    between atoms: _388  and  _389
REMARK  161  A    between atoms: _392  and  _394
REMARK  162  A    between atoms: _394  and  _395
REMARK  163  A    between atoms: _394  and  _397
REMARK  164  A    between atoms: _397  and  _398
REMARK  165  A    between atoms: _401  and  _403
REMARK  166  A    between atoms: _403  and  _404
REMARK  167  A    between atoms: _403  and  _406
REMARK  168  A    between atoms: _406  and  _407
REMARK  169  A    between atoms: _407  and  _408
REMARK  170  A    between atoms: _408  and  _409
REMARK  171  A    between atoms: _409  and  _410
REMARK  172  A    between atoms: _414  and  _416
REMARK  173  A    between atoms: _416  and  _417
REMARK  174  A    between atoms: _416  and  _419
REMARK  175  A    between atoms: _419  and  _420
REMARK  176  A    between atoms: _420  and  _421
REMARK  177  A    between atoms: _423  and  _425
REMARK  178  A    between atoms: _425  and  _426
REMARK  179  A    between atoms: _425  and  _428
REMARK  180  A    between atoms: _428  and  _429
REMARK  181  A    between atoms: _432  and  _434
REMARK  182  A    between atoms: _434  and  _435
REMARK  183  A    between atoms: _437  and  _439
REMARK  184  A    between atoms: _439  and  _440
REMARK  185  A    between atoms: _442  and  _444
REMARK  186  A    between atoms: _444  and  _445
REMARK  187  A    between atoms: _444  and  _447
REMARK  188  A    between atoms: _447  and  _448
REMARK  189  A    between atoms: _451  and  _453
REMARK  190  A    between atoms: _453  and  _454
REMARK  191  A    between atoms: _456  and  _458
REMARK  192  A    between atoms: _458  and  _459
REMARK  193  A    between atoms: _461  and  _463
REMARK  194  A    between atoms: _463  and  _464
REMARK  195  A    between atoms: _463  and  _466
REMARK  196  A    between atoms: _466  and  _467
REMARK  197  A    between atoms: _473  and  _475
REMARK  198  A    between atoms: _475  and  _476
REMARK  199  A    between atoms: _475  and  _478
REMARK  200  A    between atoms: _478  and  _479
REMARK  201  A    between atoms: _482  and  _484
REMARK  202  A    between atoms: _484  and  _485
REMARK  203  A    between atoms: _484  and  _487
REMARK  204  A    between atoms: _490  and  _492
REMARK  205  A    between atoms: _492  and  _493
REMARK  206  A    between atoms: _492  and  _495
REMARK  207  A    between atoms: _495  and  _496
REMARK  208  A    between atoms: _500  and  _501
REMARK  209  A    between atoms: _506  and  _508
REMARK  210  A    between atoms: _508  and  _509
REMARK  211  A    between atoms: _508  and  _511
REMARK  212  A    between atoms: _511  and  _512
REMARK  213  A    between atoms: _516  and  _517
REMARK  214  A    between atoms: _522  and  _524
REMARK  215  A    between atoms: _524  and  _525
REMARK  216  A    between atoms: _524  and  _527
REMARK  217  A    between atoms: _530  and  _532
REMARK  218  A    between atoms: _532  and  _533
REMARK  219  A    between atoms: _532  and  _535
REMARK  220  A    between atoms: _535  and  _536
REMARK  221  A    between atoms: _541  and  _543
REMARK  222  A    between atoms: _543  and  _544
REMARK  223  A    between atoms: _543  and  _546
REMARK  224  A    between atoms: _546  and  _547
REMARK  225  A    between atoms: _550  and  _552
REMARK  226  A    between atoms: _552  and  _553
REMARK  227  A    between atoms: _552  and  _555
REMARK  228  A    between atoms: _555  and  _556
REMARK  229  A    between atoms: _559  and  _561
REMARK  230  A    between atoms: _561  and  _562
REMARK  231  A    between atoms: _564  and  _566
REMARK  232  A    between atoms: _566  and  _567
REMARK  233  A    between atoms: _566  and  _569
REMARK  234  A    between atoms: _569  and  _570
REMARK  235  A    between atoms: _570  and  _571
REMARK  236  A    between atoms: _571  and  _572
REMARK  237  A    between atoms: _581  and  _583
REMARK  238  A    between atoms: _583  and  _584
REMARK  239  A    between atoms: _583  and  _586
REMARK  240  A    between atoms: _586  and  _587
REMARK                            x       y       z     vdW  Elec       q    Type
REMARK                         _______ _______ _______ _____ _____    ______ ____
ROOT
ATOM      1  O   HOH     1       8.694  22.154  16.596  0.00  0.00    +0.000 OA
ENDROOT
TORSDOF 0
REMARK  Name = ../refined-set-2016/3nu4/3nu4_pocket.pdb
REMARK  240 active torsions:
REMARK  status: ('A' for Active; 'I' for Inactive)
REMARK    1  A    between atoms: _1  and  _3
REMARK    2  A    between atoms: _3  and  _4
REMARK    3  A    between atoms: _3  and  _6
REMARK    4  A    between atoms: _6  and  _7
REMARK    5  A    between atoms: _7  and  _8
REMARK    6  A    between atoms: _8  and  _9
REMARK    7  A    between atoms: _18  and  _20
REMARK    8  A    between atoms: _20  and  _21
REMARK    9  A    between atoms: _20  and  _23
REMARK   10  A    between atoms: _23  and  _24
REMARK   11  A    between atoms: _27  and  _29
REMARK   12  A    between atoms: _29  and  _30
REMARK   13  A    between atoms: _29  and  _32
REMARK   14  A    between atoms: _32  and  _33
REMARK   15  A    between atoms: _36  and  _38
REMARK   16  A    between atoms: _38  and  _39
REMARK   17  A    between atoms: _38  and  _41
REMARK   18  A    between atoms: _41  and  _42
REMARK   19  A    between atoms: _45  and  _47
REMARK   20  A    between atoms: _47  and  _48
REMARK   21  A    between atoms: _47  and  _50
REMARK   22  A    between atoms: _50  and  _51
REMARK   23  A    between atoms: _54  and  _56
REMARK   24  A    between atoms: _56  and  _57
REMARK   25  A    between atoms: _59  and  _61
REMARK   26  A    between atoms: _61  and  _62
REMARK   27  A    between atoms: _65  and  _67
REMARK   28  A    between atoms: _67  and  _68
REMARK   29  A    between atoms: _67  and  _70
REMARK   30  A    between atoms: _70  and  _71
REMARK   31  A    between atoms: _74  and  _76
REMARK   32  A    between atoms: _76  and  _77
REMARK   33  A    between atoms: _76  and  _79
REMARK   34  A    between atoms: _79  and  _80
REMARK   35  A    between atoms: _83  and  _85
REMARK   36  A    between atoms: _85  and  _86
REMARK   37  A    between atoms: _85  and  _88
REMARK   38  A    between atoms: _88  and  _89
REMARK   39  A    between atoms: _92  and  _94
REMARK   40  A    between atoms: _94  and  _95
REMARK   41  A    between atoms: _94  and  _97
REMARK   42  A    between atoms: _97  and  _98
REMARK   43  A    between atoms: _101  and  _103
REMARK   44  A    between atoms: _103  and  _104
REMARK   45  A    between atoms: _103  and  _106
REMARK   46  A    between atoms: _106  and  _107
REMARK   47  A    between atoms: _107  and  _108
REMARK   48  A    between atoms: _108  and  _109
REMARK   49  A    between atoms: _109  and  _110
REMARK   50  A    between atoms: _114  and  _116
REMARK   51  A    between atoms: _116  and  _117
REMARK   52  A    between atoms: _116  and  _119
REMARK   53  A    between atoms: _119  and  _120
REMARK   54  A    between atoms: _120  and  _121
REMARK   55  A    between atoms: _123  and  _125
REMARK   56  A    between atoms: _125  and  _126
REMARK   57  A    between atoms: _125  and  _128
REMARK   58  A    between atoms: _128  and  _129
REMARK   59  A    between atoms: _132  and  _134
REMARK   60  A    between atoms: _134  and  _135
REMARK   61  A    between atoms: _137  and  _139
REMARK   62  A    between atoms: _139  and  _140
REMARK   63  A    between atoms: _142  and  _144
REMARK   64  A    between atoms: _144  and  _145
REMARK   65  A    between atoms: _144  and  _147
REMARK   66  A    between atoms: _147  and  _148
REMARK   67  A    between atoms: _151  and  _153
REMARK   68  A    between atoms: _153  and  _154
REMARK   69  A    between atoms: _156  and  _158
REMARK   70  A    between atoms: _158  and  _159
REMARK   71  A    between atoms: _161  and  _163
REMARK   72  A    between atoms: _163  and  _164
REMARK   73  A    between atoms: _163  and  _166
REMARK   74  A    between atoms: _166  and  _167
REMARK   75  A    between atoms: _173  and  _175
REMARK   76  A    between atoms: _175  and  _176
REMARK   77  A    between atoms: _175  and  _178
REMARK   78  A    between atoms: _178  and  _179
REMARK   79  A    between atoms: _182  and  _184
REMARK   80  A    between atoms: _184  and  _185
REMARK   81  A    between atoms: _184  and  _187
REMARK   82  A    between atoms: _190  and  _192
REMARK   83  A    between atoms: _192  and  _193
REMARK   84  A    between atoms: _192  and  _195
REMARK   85  A    between atoms: _195  and  _196
REMARK   86  A    between atoms: _200  and  _201
REMARK   87  A    between atoms: _206  and  _208
REMARK   88  A    between atoms: _208  and  _209
REMARK   89  A    between atoms: _208  and  _211
REMARK   90  A    between atoms: _211  and  _212
REMARK   91  A    between atoms: _216  and  _217
REMARK   92  A    between atoms: _222  and  _224
REMARK   93  A    between atoms: _224  and  _225
REMARK   94  A    between atoms: _224  and  _227
REMARK   95  A    between atoms: _230  and  _232
REMARK   96  A    between atoms: _232  and  _233
REMARK   97  A    between atoms: _232  and  _235
REMARK   98  A    between atoms: _235  and  _236
REMARK   99  A    between atoms: _241  and  _243
REMARK  100  A    between atoms: _243  and  _244
REMARK  101  A    between atoms: _243  and  _246
REMARK  102  A    between atoms: _246  and  _247
REMARK  103  A    between atoms: _250  and  _252
REMARK  104  A    between atoms: _252  and  _253
REMARK  105  A    between atoms: _252  and  _255
REMARK  106  A    between atoms: _255  and  _256
REMARK  107  A    between atoms: _259  and  _261
REMARK  108  A    between atoms: _261  and  _262
REMARK  109  A    between atoms: _264  and  _266
REMARK  110  A    between atoms: _266  and  _267
REMARK  111  A    between atoms: _266  and  _269
REMARK  112  A    between atoms: _269  and  _270
REMARK  113  A    between atoms: _270  and  _271
REMARK  114  A    between atoms: _271  and  _272
REMARK  115  A    between atoms: _281  and  _283
REMARK  116  A    between atoms: _283  and  _284
REMARK  117  A    between atoms: _283  and  _286
REMARK  118  A    between atoms: _286  and  _287
REMARK  119  A    between atoms: _292  and  _294
REMARK  120  A    between atoms: _294  and  _295
REMARK  121  A    between atoms: _294  and  _297
REMARK  122  A    between atoms: _297  and  _298
REMARK  123  A    between atoms: _298  and  _299
REMARK  124  A    between atoms: _299  and  _300
REMARK  125  A    between atoms: _309  and  _311
REMARK  126  A    between atoms: _311  and  _312
REMARK  127  A    between atoms: _311  and  _314
REMARK  128  A    between atoms: _314  and  _315
REMARK  129  A    between atoms: _318  and  _320
REMARK  130  A    between atoms: _320  and  _321
REMARK  131  A    between atoms: _320  and  _323
REMARK  132  A    between atoms: _323  and  _324
REMARK  133  A    between atoms: _327  and  _329
REMARK  134  A    between atoms: _329  and  _330
REMARK  135  A    between atoms: _329  and  _332
REMARK  136  A    between atoms: _332  and  _333
REMARK  137  A    between atoms: _336  and  _338
REMARK  138  A    between atoms: _338  and  _339
REMARK  139  A    between atoms: _338  and  _341
REMARK  140  A    between atoms: _341  and  _342
REMARK  141  A    between atoms: _345  and  _347
REMARK  142  A    between atoms: _347  and  _348
REMARK  143  A    between atoms: _350  and  _352
REMARK  144  A    between atoms: _352  and  _353
REMARK  145  A    between atoms: _356  and  _358
REMARK  146  A    between atoms: _358  and  _359
REMARK  147  A    between atoms: _358  and  _361
REMARK  148  A    between atoms: _361  and  _362
REMARK  149  A    between atoms: _365  and  _367
REMARK  150  A    between atoms: _367  and  _368
REMARK  151  A    between atoms: _367  and  _370
REMARK  152  A    between atoms: _370  and  _371
REMARK  153  A    between atoms: _374  and  _376
REMARK  154  A    between atoms: _376  and  _377
REMARK  155  A    between atoms: _376  and  _379
REMARK  156  A    between atoms: _379  and  _380
REMARK  157  A    between atoms: _383  and  _385
REMARK  158  A    between atoms: _385  and  _386
REMARK  159  A    between atoms: _385  and  _388
REMARK  160  A    between atoms: _388  and  _389
REMARK  161  A    between atoms: _392  and  _394
REMARK  162  A    between atoms: _394  and  _395
REMARK  163  A    between atoms: _394  and  _397
REMARK  164  A    between atoms: _397  and  _398
REMARK  165  A    between atoms: _401  and  _403
REMARK  166  A    between atoms: _403  and  _404
REMARK  167  A    between atoms: _403  and  _406
REMARK  168  A    between atoms: _406  and  _407
REMARK  169  A    between atoms: _407  and  _408
REMARK  170  A    between atoms: _408  and  _409
REMARK  171  A    between atoms: _409  and  _410
REMARK  172  A    between atoms: _414  and  _416
REMARK  173  A    between atoms: _416  and  _417
REMARK  174  A    between atoms: _416  and  _419
REMARK  175  A    between atoms: _419  and  _420
REMARK  176  A    between atoms: _420  and  _421
REMARK  177  A    between atoms: _423  and  _425
REMARK  178  A    between atoms: _425  and  _426
REMARK  179  A    between atoms: _425  and  _428
REMARK  180  A    between atoms: _428  and  _429
REMARK  181  A    between atoms: _432  and  _434
REMARK  182  A    between atoms: _434  and  _435
REMARK  183  A    between atoms: _437  and  _439
REMARK  184  A    between atoms: _439  and  _440
REMARK  185  A    between atoms: _442  and  _444
REMARK  186  A    between atoms: _444  and  _445
REMARK  187  A    between atoms: _444  and  _447
REMARK  188  A    between atoms: _447  and  _448
REMARK  189  A    between atoms: _451  and  _453
REMARK  190  A    between atoms: _453  and  _454
REMARK  191  A    between atoms: _456  and  _458
REMARK  192  A    between atoms: _458  and  _459
REMARK  193  A    between atoms: _461  and  _463
REMARK  194  A    between atoms: _463  and  _464
REMARK  195  A    between atoms: _463  and  _466
REMARK  196  A    between atoms: _466  and  _467
REMARK  197  A    between atoms: _473  and  _475
REMARK  198  A    between atoms: _475  and  _476
REMARK  199  A    between atoms: _475  and  _478
REMARK  200  A    between atoms: _478  and  _479
REMARK  201  A    between atoms: _482  and  _484
REMARK  202  A    between atoms: _484  and  _485
REMARK  203  A    between atoms: _484  and  _487
REMARK  204  A    between atoms: _490  and  _492
REMARK  205  A    between atoms: _492  and  _493
REMARK  206  A    between atoms: _492  and  _495
REMARK  207  A    between atoms: _495  and  _496
REMARK  208  A    between atoms: _500  and  _501
REMARK  209  A    between atoms: _506  and  _508
REMARK  210  A    between atoms: _508  and  _509
REMARK  211  A    between atoms: _508  and  _511
REMARK  212  A    between atoms: _511  and  _512
REMARK  213  A    between atoms: _516  and  _517
REMARK  214  A    between atoms: _522  and  _524
REMARK  215  A    between atoms: _524  and  _525
REMARK  216  A    between atoms: _524  and  _527
REMARK  217  A    between atoms: _530  and  _532
REMARK  218  A    between atoms: _532  and  _533
REMARK  219  A    between atoms: _532  and  _535
REMARK  220  A    between atoms: _535  and  _536
REMARK  221  A    between atoms: _541  and  _543
REMARK  222  A    between atoms: _543  and  _544
REMARK  223  A    between atoms: _543  and  _546
REMARK  224  A    between atoms: _546  and  _547
REMARK  225  A    between atoms: _550  and  _552
REMARK  226  A    between atoms: _552  and  _553
REMARK  227  A    between atoms: _552  and  _555
REMARK  228  A    between atoms: _555  and  _556
REMARK  229  A    between atoms: _559  and  _561
REMARK  230  A    between atoms: _561  and  _562
REMARK  231  A    between atoms: _564  and  _566
REMARK  232  A    between atoms: _566  and  _567
REMARK  233  A    between atoms: _566  and  _569
REMARK  234  A    between atoms: _569  and  _570
REMARK  235  A    between atoms: _570  and  _571
REMARK  236  A    between atoms: _571  and  _572
REMARK  237  A    between atoms: _581  and  _583
REMARK  238  A    between atoms: _583  and  _584
REMARK  239  A    between atoms: _583  and  _586
REMARK  240  A    between atoms: _586  and  _587
REMARK                            x       y       z     vdW  Elec       q    Type
REMARK                         _______ _______ _______ _____ _____    ______ ____
ROOT
ATOM      1  O   HOH     1       6.551  22.212  11.286  0.00  0.00    +0.000 OA
ENDROOT
TORSDOF 0
REMARK  Name = ../refined-set-2016/3nu4/3nu4_pocket.pdb
REMARK  240 active torsions:
REMARK  status: ('A' for Active; 'I' for Inactive)
REMARK    1  A    between atoms: _1  and  _3
REMARK    2  A    between atoms: _3  and  _4
REMARK    3  A    between atoms: _3  and  _6
REMARK    4  A    between atoms: _6  and  _7
REMARK    5  A    between atoms: _7  and  _8
REMARK    6  A    between atoms: _8  and  _9
REMARK    7  A    between atoms: _18  and  _20
REMARK    8  A    between atoms: _20  and  _21
REMARK    9  A    between atoms: _20  and  _23
REMARK   10  A    between atoms: _23  and  _24
REMARK   11  A    between atoms: _27  and  _29
REMARK   12  A    between atoms: _29  and  _30
REMARK   13  A    between atoms: _29  and  _32
REMARK   14  A    between atoms: _32  and  _33
REMARK   15  A    between atoms: _36  and  _38
REMARK   16  A    between atoms: _38  and  _39
REMARK   17  A    between atoms: _38  and  _41
REMARK   18  A    between atoms: _41  and  _42
REMARK   19  A    between atoms: _45  and  _47
REMARK   20  A    between atoms: _47  and  _48
REMARK   21  A    between atoms: _47  and  _50
REMARK   22  A    between atoms: _50  and  _51
REMARK   23  A    between atoms: _54  and  _56
REMARK   24  A    between atoms: _56  and  _57
REMARK   25  A    between atoms: _59  and  _61
REMARK   26  A    between atoms: _61  and  _62
REMARK   27  A    between atoms: _65  and  _67
REMARK   28  A    between atoms: _67  and  _68
REMARK   29  A    between atoms: _67  and  _70
REMARK   30  A    between atoms: _70  and  _71
REMARK   31  A    between atoms: _74  and  _76
REMARK   32  A    between atoms: _76  and  _77
REMARK   33  A    between atoms: _76  and  _79
REMARK   34  A    between atoms: _79  and  _80
REMARK   35  A    between atoms: _83  and  _85
REMARK   36  A    between atoms: _85  and  _86
REMARK   37  A    between atoms: _85  and  _88
REMARK   38  A    between atoms: _88  and  _89
REMARK   39  A    between atoms: _92  and  _94
REMARK   40  A    between atoms: _94  and  _95
REMARK   41  A    between atoms: _94  and  _97
REMARK   42  A    between atoms: _97  and  _98
REMARK   43  A    between atoms: _101  and  _103
REMARK   44  A    between atoms: _103  and  _104
REMARK   45  A    between atoms: _103  and  _106
REMARK   46  A    between atoms: _106  and  _107
REMARK   47  A    between atoms: _107  and  _108
REMARK   48  A    between atoms: _108  and  _109
REMARK   49  A    between atoms: _109  and  _110
REMARK   50  A    between atoms: _114  and  _116
REMARK   51  A    between atoms: _116  and  _117
REMARK   52  A    between atoms: _116  and  _119
REMARK   53  A    between atoms: _119  and  _120
REMARK   54  A    between atoms: _120  and  _121
REMARK   55  A    between atoms: _123  and  _125
REMARK   56  A    between atoms: _125  and  _126
REMARK   57  A    between atoms: _125  and  _128
REMARK   58  A    between atoms: _128  and  _129
REMARK   59  A    between atoms: _132  and  _134
REMARK   60  A    between atoms: _134  and  _135
REMARK   61  A    between atoms: _137  and  _139
REMARK   62  A    between atoms: _139  and  _140
REMARK   63  A    between atoms: _142  and  _144
REMARK   64  A    between atoms: _144  and  _145
REMARK   65  A    between atoms: _144  and  _147
REMARK   66  A    between atoms: _147  and  _148
REMARK   67  A    between atoms: _151  and  _153
REMARK   68  A    between atoms: _153  and  _154
REMARK   69  A    between atoms: _156  and  _158
REMARK   70  A    between atoms: _158  and  _159
REMARK   71  A    between atoms: _161  and  _163
REMARK   72  A    between atoms: _163  and  _164
REMARK   73  A    between atoms: _163  and  _166
REMARK   74  A    between atoms: _166  and  _167
REMARK   75  A    between atoms: _173  and  _175
REMARK   76  A    between atoms: _175  and  _176
REMARK   77  A    between atoms: _175  and  _178
REMARK   78  A    between atoms: _178  and  _179
REMARK   79  A    between atoms: _182  and  _184
REMARK   80  A    between atoms: _184  and  _185
REMARK   81  A    between atoms: _184  and  _187
REMARK   82  A    between atoms: _190  and  _192
REMARK   83  A    between atoms: _192  and  _193
REMARK   84  A    between atoms: _192  and  _195
REMARK   85  A    between atoms: _195  and  _196
REMARK   86  A    between atoms: _200  and  _201
REMARK   87  A    between atoms: _206  and  _208
REMARK   88  A    between atoms: _208  and  _209
REMARK   89  A    between atoms: _208  and  _211
REMARK   90  A    between atoms: _211  and  _212
REMARK   91  A    between atoms: _216  and  _217
REMARK   92  A    between atoms: _222  and  _224
REMARK   93  A    between atoms: _224  and  _225
REMARK   94  A    between atoms: _224  and  _227
REMARK   95  A    between atoms: _230  and  _232
REMARK   96  A    between atoms: _232  and  _233
REMARK   97  A    between atoms: _232  and  _235
REMARK   98  A    between atoms: _235  and  _236
REMARK   99  A    between atoms: _241  and  _243
REMARK  100  A    between atoms: _243  and  _244
REMARK  101  A    between atoms: _243  and  _246
REMARK  102  A    between atoms: _246  and  _247
REMARK  103  A    between atoms: _250  and  _252
REMARK  104  A    between atoms: _252  and  _253
REMARK  105  A    between atoms: _252  and  _255
REMARK  106  A    between atoms: _255  and  _256
REMARK  107  A    between atoms: _259  and  _261
REMARK  108  A    between atoms: _261  and  _262
REMARK  109  A    between atoms: _264  and  _266
REMARK  110  A    between atoms: _266  and  _267
REMARK  111  A    between atoms: _266  and  _269
REMARK  112  A    between atoms: _269  and  _270
REMARK  113  A    between atoms: _270  and  _271
REMARK  114  A    between atoms: _271  and  _272
REMARK  115  A    between atoms: _281  and  _283
REMARK  116  A    between atoms: _283  and  _284
REMARK  117  A    between atoms: _283  and  _286
REMARK  118  A    between atoms: _286  and  _287
REMARK  119  A    between atoms: _292  and  _294
REMARK  120  A    between atoms: _294  and  _295
REMARK  121  A    between atoms: _294  and  _297
REMARK  122  A    between atoms: _297  and  _298
REMARK  123  A    between atoms: _298  and  _299
REMARK  124  A    between atoms: _299  and  _300
REMARK  125  A    between atoms: _309  and  _311
REMARK  126  A    between atoms: _311  and  _312
REMARK  127  A    between atoms: _311  and  _314
REMARK  128  A    between atoms: _314  and  _315
REMARK  129  A    between atoms: _318  and  _320
REMARK  130  A    between atoms: _320  and  _321
REMARK  131  A    between atoms: _320  and  _323
REMARK  132  A    between atoms: _323  and  _324
REMARK  133  A    between atoms: _327  and  _329
REMARK  134  A    between atoms: _329  and  _330
REMARK  135  A    between atoms: _329  and  _332
REMARK  136  A    between atoms: _332  and  _333
REMARK  137  A    between atoms: _336  and  _338
REMARK  138  A    between atoms: _338  and  _339
REMARK  139  A    between atoms: _338  and  _341
REMARK  140  A    between atoms: _341  and  _342
REMARK  141  A    between atoms: _345  and  _347
REMARK  142  A    between atoms: _347  and  _348
REMARK  143  A    between atoms: _350  and  _352
REMARK  144  A    between atoms: _352  and  _353
REMARK  145  A    between atoms: _356  and  _358
REMARK  146  A    between atoms: _358  and  _359
REMARK  147  A    between atoms: _358  and  _361
REMARK  148  A    between atoms: _361  and  _362
REMARK  149  A    between atoms: _365  and  _367
REMARK  150  A    between atoms: _367  and  _368
REMARK  151  A    between atoms: _367  and  _370
REMARK  152  A    between atoms: _370  and  _371
REMARK  153  A    between atoms: _374  and  _376
REMARK  154  A    between atoms: _376  and  _377
REMARK  155  A    between atoms: _376  and  _379
REMARK  156  A    between atoms: _379  and  _380
REMARK  157  A    between atoms: _383  and  _385
REMARK  158  A    between atoms: _385  and  _386
REMARK  159  A    between atoms: _385  and  _388
REMARK  160  A    between atoms: _388  and  _389
REMARK  161  A    between atoms: _392  and  _394
REMARK  162  A    between atoms: _394  and  _395
REMARK  163  A    between atoms: _394  and  _397
REMARK  164  A    between atoms: _397  and  _398
REMARK  165  A    between atoms: _401  and  _403
REMARK  166  A    between atoms: _403  and  _404
REMARK  167  A    between atoms: _403  and  _406
REMARK  168  A    between atoms: _406  and  _407
REMARK  169  A    between atoms: _407  and  _408
REMARK  170  A    between atoms: _408  and  _409
REMARK  171  A    between atoms: _409  and  _410
REMARK  172  A    between atoms: _414  and  _416
REMARK  173  A    between atoms: _416  and  _417
REMARK  174  A    between atoms: _416  and  _419
REMARK  175  A    between atoms: _419  and  _420
REMARK  176  A    between atoms: _420  and  _421
REMARK  177  A    between atoms: _423  and  _425
REMARK  178  A    between atoms: _425  and  _426
REMARK  179  A    between atoms: _425  and  _428
REMARK  180  A    between atoms: _428  and  _429
REMARK  181  A    between atoms: _432  and  _434
REMARK  182  A    between atoms: _434  and  _435
REMARK  183  A    between atoms: _437  and  _439
REMARK  184  A    between atoms: _439  and  _440
REMARK  185  A    between atoms: _442  and  _444
REMARK  186  A    between atoms: _444  and  _445
REMARK  187  A    between atoms: _444  and  _447
REMARK  188  A    between atoms: _447  and  _448
REMARK  189  A    between atoms: _451  and  _453
REMARK  190  A    between atoms: _453  and  _454
REMARK  191  A    between atoms: _456  and  _458
REMARK  192  A    between atoms: _458  and  _459
REMARK  193  A    between atoms: _461  and  _463
REMARK  194  A    between atoms: _463  and  _464
REMARK  195  A    between atoms: _463  and  _466
REMARK  196  A    between atoms: _466  and  _467
REMARK  197  A    between atoms: _473  and  _475
REMARK  198  A    between atoms: _475  and  _476
REMARK  199  A    between atoms: _475  and  _478
REMARK  200  A    between atoms: _478  and  _479
REMARK  201  A    between atoms: _482  and  _484
REMARK  202  A    between atoms: _484  and  _485
REMARK  203  A    between atoms: _484  and  _487
REMARK  204  A    between atoms: _490  and  _492
REMARK  205  A    between atoms: _492  and  _493
REMARK  206  A    between atoms: _492  and  _495
REMARK  207  A    between atoms: _495  and  _496
REMARK  208  A    between atoms: _500  and  _501
REMARK  209  A    between atoms: _506  and  _508
REMARK  210  A    between atoms: _508  and  _509
REMARK  211  A    between atoms: _508  and  _511
REMARK  212  A    between atoms: _511  and  _512
REMARK  213  A    between atoms: _516  and  _517
REMARK  214  A    between atoms: _522  and  _524
REMARK  215  A    between atoms: _524  and  _525
REMARK  216  A    between atoms: _524  and  _527
REMARK  217  A    between atoms: _530  and  _532
REMARK  218  A    between atoms: _532  and  _533
REMARK  219  A    between atoms: _532  and  _535
REMARK  220  A    between atoms: _535  and  _536
REMARK  221  A    between atoms: _541  and  _543
REMARK  222  A    between atoms: _543  and  _544
REMARK  223  A    between atoms: _543  and  _546
REMARK  224  A    between atoms: _546  and  _547
REMARK  225  A    between atoms: _550  and  _552
REMARK  226  A    between atoms: _552  and  _553
REMARK  227  A    between atoms: _552  and  _555
REMARK  228  A    between atoms: _555  and  _556
REMARK  229  A    between atoms: _559  and  _561
REMARK  230  A    between atoms: _561  and  _562
REMARK  231  A    between atoms: _564  and  _566
REMARK  232  A    between atoms: _566  and  _567
REMARK  233  A    between atoms: _566  and  _569
REMARK  234  A    between atoms: _569  and  _570
REMARK  235  A    between atoms: _570  and  _571
REMARK  236  A    between atoms: _571  and  _572
REMARK  237  A    between atoms: _581  and  _583
REMARK  238  A    between atoms: _583  and  _584
REMARK  239  A    between atoms: _583  and  _586
REMARK  240  A    between atoms: _586  and  _587
REMARK                            x       y       z     vdW  Elec       q    Type
REMARK                         _______ _______ _______ _____ _____    ______ ____
ROOT
ATOM      1  O   HOH     1      25.292  25.705  15.994  0.00  0.00    +0.000 OA
ENDROOT
TORSDOF 0
REMARK  Name = ../refined-set-2016/3nu4/3nu4_pocket.pdb
REMARK  240 active torsions:
REMARK  status: ('A' for Active; 'I' for Inactive)
REMARK    1  A    between atoms: _1  and  _3
REMARK    2  A    between atoms: _3  and  _4
REMARK    3  A    between atoms: _3  and  _6
REMARK    4  A    between atoms: _6  and  _7
REMARK    5  A    between atoms: _7  and  _8
REMARK    6  A    between atoms: _8  and  _9
REMARK    7  A    between atoms: _18  and  _20
REMARK    8  A    between atoms: _20  and  _21
REMARK    9  A    between atoms: _20  and  _23
REMARK   10  A    between atoms: _23  and  _24
REMARK   11  A    between atoms: _27  and  _29
REMARK   12  A    between atoms: _29  and  _30
REMARK   13  A    between atoms: _29  and  _32
REMARK   14  A    between atoms: _32  and  _33
REMARK   15  A    between atoms: _36  and  _38
REMARK   16  A    between atoms: _38  and  _39
REMARK   17  A    between atoms: _38  and  _41
REMARK   18  A    between atoms: _41  and  _42
REMARK   19  A    between atoms: _45  and  _47
REMARK   20  A    between atoms: _47  and  _48
REMARK   21  A    between atoms: _47  and  _50
REMARK   22  A    between atoms: _50  and  _51
REMARK   23  A    between atoms: _54  and  _56
REMARK   24  A    between atoms: _56  and  _57
REMARK   25  A    between atoms: _59  and  _61
REMARK   26  A    between atoms: _61  and  _62
REMARK   27  A    between atoms: _65  and  _67
REMARK   28  A    between atoms: _67  and  _68
REMARK   29  A    between atoms: _67  and  _70
REMARK   30  A    between atoms: _70  and  _71
REMARK   31  A    between atoms: _74  and  _76
REMARK   32  A    between atoms: _76  and  _77
REMARK   33  A    between atoms: _76  and  _79
REMARK   34  A    between atoms: _79  and  _80
REMARK   35  A    between atoms: _83  and  _85
REMARK   36  A    between atoms: _85  and  _86
REMARK   37  A    between atoms: _85  and  _88
REMARK   38  A    between atoms: _88  and  _89
REMARK   39  A    between atoms: _92  and  _94
REMARK   40  A    between atoms: _94  and  _95
REMARK   41  A    between atoms: _94  and  _97
REMARK   42  A    between atoms: _97  and  _98
REMARK   43  A    between atoms: _101  and  _103
REMARK   44  A    between atoms: _103  and  _104
REMARK   45  A    between atoms: _103  and  _106
REMARK   46  A    between atoms: _106  and  _107
REMARK   47  A    between atoms: _107  and  _108
REMARK   48  A    between atoms: _108  and  _109
REMARK   49  A    between atoms: _109  and  _110
REMARK   50  A    between atoms: _114  and  _116
REMARK   51  A    between atoms: _116  and  _117
REMARK   52  A    between atoms: _116  and  _119
REMARK   53  A    between atoms: _119  and  _120
REMARK   54  A    between atoms: _120  and  _121
REMARK   55  A    between atoms: _123  and  _125
REMARK   56  A    between atoms: _125  and  _126
REMARK   57  A    between atoms: _125  and  _128
REMARK   58  A    between atoms: _128  and  _129
REMARK   59  A    between atoms: _132  and  _134
REMARK   60  A    between atoms: _134  and  _135
REMARK   61  A    between atoms: _137  and  _139
REMARK   62  A    between atoms: _139  and  _140
REMARK   63  A    between atoms: _142  and  _144
REMARK   64  A    between atoms: _144  and  _145
REMARK   65  A    between atoms: _144  and  _147
REMARK   66  A    between atoms: _147  and  _148
REMARK   67  A    between atoms: _151  and  _153
REMARK   68  A    between atoms: _153  and  _154
REMARK   69  A    between atoms: _156  and  _158
REMARK   70  A    between atoms: _158  and  _159
REMARK   71  A    between atoms: _161  and  _163
REMARK   72  A    between atoms: _163  and  _164
REMARK   73  A    between atoms: _163  and  _166
REMARK   74  A    between atoms: _166  and  _167
REMARK   75  A    between atoms: _173  and  _175
REMARK   76  A    between atoms: _175  and  _176
REMARK   77  A    between atoms: _175  and  _178
REMARK   78  A    between atoms: _178  and  _179
REMARK   79  A    between atoms: _182  and  _184
REMARK   80  A    between atoms: _184  and  _185
REMARK   81  A    between atoms: _184  and  _187
REMARK   82  A    between atoms: _190  and  _192
REMARK   83  A    between atoms: _192  and  _193
REMARK   84  A    between atoms: _192  and  _195
REMARK   85  A    between atoms: _195  and  _196
REMARK   86  A    between atoms: _200  and  _201
REMARK   87  A    between atoms: _206  and  _208
REMARK   88  A    between atoms: _208  and  _209
REMARK   89  A    between atoms: _208  and  _211
REMARK   90  A    between atoms: _211  and  _212
REMARK   91  A    between atoms: _216  and  _217
REMARK   92  A    between atoms: _222  and  _224
REMARK   93  A    between atoms: _224  and  _225
REMARK   94  A    between atoms: _224  and  _227
REMARK   95  A    between atoms: _230  and  _232
REMARK   96  A    between atoms: _232  and  _233
REMARK   97  A    between atoms: _232  and  _235
REMARK   98  A    between atoms: _235  and  _236
REMARK   99  A    between atoms: _241  and  _243
REMARK  100  A    between atoms: _243  and  _244
REMARK  101  A    between atoms: _243  and  _246
REMARK  102  A    between atoms: _246  and  _247
REMARK  103  A    between atoms: _250  and  _252
REMARK  104  A    between atoms: _252  and  _253
REMARK  105  A    between atoms: _252  and  _255
REMARK  106  A    between atoms: _255  and  _256
REMARK  107  A    between atoms: _259  and  _261
REMARK  108  A    between atoms: _261  and  _262
REMARK  109  A    between atoms: _264  and  _266
REMARK  110  A    between atoms: _266  and  _267
REMARK  111  A    between atoms: _266  and  _269
REMARK  112  A    between atoms: _269  and  _270
REMARK  113  A    between atoms: _270  and  _271
REMARK  114  A    between atoms: _271  and  _272
REMARK  115  A    between atoms: _281  and  _283
REMARK  116  A    between atoms: _283  and  _284
REMARK  117  A    between atoms: _283  and  _286
REMARK  118  A    between atoms: _286  and  _287
REMARK  119  A    between atoms: _292  and  _294
REMARK  120  A    between atoms: _294  and  _295
REMARK  121  A    between atoms: _294  and  _297
REMARK  122  A    between atoms: _297  and  _298
REMARK  123  A    between atoms: _298  and  _299
REMARK  124  A    between atoms: _299  and  _300
REMARK  125  A    between atoms: _309  and  _311
REMARK  126  A    between atoms: _311  and  _312
REMARK  127  A    between atoms: _311  and  _314
REMARK  128  A    between atoms: _314  and  _315
REMARK  129  A    between atoms: _318  and  _320
REMARK  130  A    between atoms: _320  and  _321
REMARK  131  A    between atoms: _320  and  _323
REMARK  132  A    between atoms: _323  and  _324
REMARK  133  A    between atoms: _327  and  _329
REMARK  134  A    between atoms: _329  and  _330
REMARK  135  A    between atoms: _329  and  _332
REMARK  136  A    between atoms: _332  and  _333
REMARK  137  A    between atoms: _336  and  _338
REMARK  138  A    between atoms: _338  and  _339
REMARK  139  A    between atoms: _338  and  _341
REMARK  140  A    between atoms: _341  and  _342
REMARK  141  A    between atoms: _345  and  _347
REMARK  142  A    between atoms: _347  and  _348
REMARK  143  A    between atoms: _350  and  _352
REMARK  144  A    between atoms: _352  and  _353
REMARK  145  A    between atoms: _356  and  _358
REMARK  146  A    between atoms: _358  and  _359
REMARK  147  A    between atoms: _358  and  _361
REMARK  148  A    between atoms: _361  and  _362
REMARK  149  A    between atoms: _365  and  _367
REMARK  150  A    between atoms: _367  and  _368
REMARK  151  A    between atoms: _367  and  _370
REMARK  152  A    between atoms: _370  and  _371
REMARK  153  A    between atoms: _374  and  _376
REMARK  154  A    between atoms: _376  and  _377
REMARK  155  A    between atoms: _376  and  _379
REMARK  156  A    between atoms: _379  and  _380
REMARK  157  A    between atoms: _383  and  _385
REMARK  158  A    between atoms: _385  and  _386
REMARK  159  A    between atoms: _385  and  _388
REMARK  160  A    between atoms: _388  and  _389
REMARK  161  A    between atoms: _392  and  _394
REMARK  162  A    between atoms: _394  and  _395
REMARK  163  A    between atoms: _394  and  _397
REMARK  164  A    between atoms: _397  and  _398
REMARK  165  A    between atoms: _401  and  _403
REMARK  166  A    between atoms: _403  and  _404
REMARK  167  A    between atoms: _403  and  _406
REMARK  168  A    between atoms: _406  and  _407
REMARK  169  A    between atoms: _407  and  _408
REMARK  170  A    between atoms: _408  and  _409
REMARK  171  A    between atoms: _409  and  _410
REMARK  172  A    between atoms: _414  and  _416
REMARK  173  A    between atoms: _416  and  _417
REMARK  174  A    between atoms: _416  and  _419
REMARK  175  A    between atoms: _419  and  _420
REMARK  176  A    between atoms: _420  and  _421
REMARK  177  A    between atoms: _423  and  _425
REMARK  178  A    between atoms: _425  and  _426
REMARK  179  A    between atoms: _425  and  _428
REMARK  180  A    between atoms: _428  and  _429
REMARK  181  A    between atoms: _432  and  _434
REMARK  182  A    between atoms: _434  and  _435
REMARK  183  A    between atoms: _437  and  _439
REMARK  184  A    between atoms: _439  and  _440
REMARK  185  A    between atoms: _442  and  _444
REMARK  186  A    between atoms: _444  and  _445
REMARK  187  A    between atoms: _444  and  _447
REMARK  188  A    between atoms: _447  and  _448
REMARK  189  A    between atoms: _451  and  _453
REMARK  190  A    between atoms: _453  and  _454
REMARK  191  A    between atoms: _456  and  _458
REMARK  192  A    between atoms: _458  and  _459
REMARK  193  A    between atoms: _461  and  _463
REMARK  194  A    between atoms: _463  and  _464
REMARK  195  A    between atoms: _463  and  _466
REMARK  196  A    between atoms: _466  and  _467
REMARK  197  A    between atoms: _473  and  _475
REMARK  198  A    between atoms: _475  and  _476
REMARK  199  A    between atoms: _475  and  _478
REMARK  200  A    between atoms: _478  and  _479
REMARK  201  A    between atoms: _482  and  _484
REMARK  202  A    between atoms: _484  and  _485
REMARK  203  A    between atoms: _484  and  _487
REMARK  204  A    between atoms: _490  and  _492
REMARK  205  A    between atoms: _492  and  _493
REMARK  206  A    between atoms: _492  and  _495
REMARK  207  A    between atoms: _495  and  _496
REMARK  208  A    between atoms: _500  and  _501
REMARK  209  A    between atoms: _506  and  _508
REMARK  210  A    between atoms: _508  and  _509
REMARK  211  A    between atoms: _508  and  _511
REMARK  212  A    between atoms: _511  and  _512
REMARK  213  A    between atoms: _516  and  _517
REMARK  214  A    between atoms: _522  and  _524
REMARK  215  A    between atoms: _524  and  _525
REMARK  216  A    between atoms: _524  and  _527
REMARK  217  A    between atoms: _530  and  _532
REMARK  218  A    between atoms: _532  and  _533
REMARK  219  A    between atoms: _532  and  _535
REMARK  220  A    between atoms: _535  and  _536
REMARK  221  A    between atoms: _541  and  _543
REMARK  222  A    between atoms: _543  and  _544
REMARK  223  A    between atoms: _543  and  _546
REMARK  224  A    between atoms: _546  and  _547
REMARK  225  A    between atoms: _550  and  _552
REMARK  226  A    between atoms: _552  and  _553
REMARK  227  A    between atoms: _552  and  _555
REMARK  228  A    between atoms: _555  and  _556
REMARK  229  A    between atoms: _559  and  _561
REMARK  230  A    between atoms: _561  and  _562
REMARK  231  A    between atoms: _564  and  _566
REMARK  232  A    between atoms: _566  and  _567
REMARK  233  A    between atoms: _566  and  _569
REMARK  234  A    between atoms: _569  and  _570
REMARK  235  A    between atoms: _570  and  _571
REMARK  236  A    between atoms: _571  and  _572
REMARK  237  A    between atoms: _581  and  _583
REMARK  238  A    between atoms: _583  and  _584
REMARK  239  A    between atoms: _583  and  _586
REMARK  240  A    between atoms: _586  and  _587
REMARK                            x       y       z     vdW  Elec       q    Type
REMARK                         _______ _______ _______ _____ _____    ______ ____
ROOT
ATOM      1  O   HOH     1      20.073  28.796  21.229  0.00  0.00    +0.000 OA
ENDROOT
TORSDOF 0
REMARK  Name = ../refined-set-2016/3nu4/3nu4_pocket.pdb
REMARK  240 active torsions:
REMARK  status: ('A' for Active; 'I' for Inactive)
REMARK    1  A    between atoms: _1  and  _3
REMARK    2  A    between atoms: _3  and  _4
REMARK    3  A    between atoms: _3  and  _6
REMARK    4  A    between atoms: _6  and  _7
REMARK    5  A    between atoms: _7  and  _8
REMARK    6  A    between atoms: _8  and  _9
REMARK    7  A    between atoms: _18  and  _20
REMARK    8  A    between atoms: _20  and  _21
REMARK    9  A    between atoms: _20  and  _23
REMARK   10  A    between atoms: _23  and  _24
REMARK   11  A    between atoms: _27  and  _29
REMARK   12  A    between atoms: _29  and  _30
REMARK   13  A    between atoms: _29  and  _32
REMARK   14  A    between atoms: _32  and  _33
REMARK   15  A    between atoms: _36  and  _38
REMARK   16  A    between atoms: _38  and  _39
REMARK   17  A    between atoms: _38  and  _41
REMARK   18  A    between atoms: _41  and  _42
REMARK   19  A    between atoms: _45  and  _47
REMARK   20  A    between atoms: _47  and  _48
REMARK   21  A    between atoms: _47  and  _50
REMARK   22  A    between atoms: _50  and  _51
REMARK   23  A    between atoms: _54  and  _56
REMARK   24  A    between atoms: _56  and  _57
REMARK   25  A    between atoms: _59  and  _61
REMARK   26  A    between atoms: _61  and  _62
REMARK   27  A    between atoms: _65  and  _67
REMARK   28  A    between atoms: _67  and  _68
REMARK   29  A    between atoms: _67  and  _70
REMARK   30  A    between atoms: _70  and  _71
REMARK   31  A    between atoms: _74  and  _76
REMARK   32  A    between atoms: _76  and  _77
REMARK   33  A    between atoms: _76  and  _79
REMARK   34  A    between atoms: _79  and  _80
REMARK   35  A    between atoms: _83  and  _85
REMARK   36  A    between atoms: _85  and  _86
REMARK   37  A    between atoms: _85  and  _88
REMARK   38  A    between atoms: _88  and  _89
REMARK   39  A    between atoms: _92  and  _94
REMARK   40  A    between atoms: _94  and  _95
REMARK   41  A    between atoms: _94  and  _97
REMARK   42  A    between atoms: _97  and  _98
REMARK   43  A    between atoms: _101  and  _103
REMARK   44  A    between atoms: _103  and  _104
REMARK   45  A    between atoms: _103  and  _106
REMARK   46  A    between atoms: _106  and  _107
REMARK   47  A    between atoms: _107  and  _108
REMARK   48  A    between atoms: _108  and  _109
REMARK   49  A    between atoms: _109  and  _110
REMARK   50  A    between atoms: _114  and  _116
REMARK   51  A    between atoms: _116  and  _117
REMARK   52  A    between atoms: _116  and  _119
REMARK   53  A    between atoms: _119  and  _120
REMARK   54  A    between atoms: _120  and  _121
REMARK   55  A    between atoms: _123  and  _125
REMARK   56  A    between atoms: _125  and  _126
REMARK   57  A    between atoms: _125  and  _128
REMARK   58  A    between atoms: _128  and  _129
REMARK   59  A    between atoms: _132  and  _134
REMARK   60  A    between atoms: _134  and  _135
REMARK   61  A    between atoms: _137  and  _139
REMARK   62  A    between atoms: _139  and  _140
REMARK   63  A    between atoms: _142  and  _144
REMARK   64  A    between atoms: _144  and  _145
REMARK   65  A    between atoms: _144  and  _147
REMARK   66  A    between atoms: _147  and  _148
REMARK   67  A    between atoms: _151  and  _153
REMARK   68  A    between atoms: _153  and  _154
REMARK   69  A    between atoms: _156  and  _158
REMARK   70  A    between atoms: _158  and  _159
REMARK   71  A    between atoms: _161  and  _163
REMARK   72  A    between atoms: _163  and  _164
REMARK   73  A    between atoms: _163  and  _166
REMARK   74  A    between atoms: _166  and  _167
REMARK   75  A    between atoms: _173  and  _175
REMARK   76  A    between atoms: _175  and  _176
REMARK   77  A    between atoms: _175  and  _178
REMARK   78  A    between atoms: _178  and  _179
REMARK   79  A    between atoms: _182  and  _184
REMARK   80  A    between atoms: _184  and  _185
REMARK   81  A    between atoms: _184  and  _187
REMARK   82  A    between atoms: _190  and  _192
REMARK   83  A    between atoms: _192  and  _193
REMARK   84  A    between atoms: _192  and  _195
REMARK   85  A    between atoms: _195  and  _196
REMARK   86  A    between atoms: _200  and  _201
REMARK   87  A    between atoms: _206  and  _208
REMARK   88  A    between atoms: _208  and  _209
REMARK   89  A    between atoms: _208  and  _211
REMARK   90  A    between atoms: _211  and  _212
REMARK   91  A    between atoms: _216  and  _217
REMARK   92  A    between atoms: _222  and  _224
REMARK   93  A    between atoms: _224  and  _225
REMARK   94  A    between atoms: _224  and  _227
REMARK   95  A    between atoms: _230  and  _232
REMARK   96  A    between atoms: _232  and  _233
REMARK   97  A    between atoms: _232  and  _235
REMARK   98  A    between atoms: _235  and  _236
REMARK   99  A    between atoms: _241  and  _243
REMARK  100  A    between atoms: _243  and  _244
REMARK  101  A    between atoms: _243  and  _246
REMARK  102  A    between atoms: _246  and  _247
REMARK  103  A    between atoms: _250  and  _252
REMARK  104  A    between atoms: _252  and  _253
REMARK  105  A    between atoms: _252  and  _255
REMARK  106  A    between atoms: _255  and  _256
REMARK  107  A    between atoms: _259  and  _261
REMARK  108  A    between atoms: _261  and  _262
REMARK  109  A    between atoms: _264  and  _266
REMARK  110  A    between atoms: _266  and  _267
REMARK  111  A    between atoms: _266  and  _269
REMARK  112  A    between atoms: _269  and  _270
REMARK  113  A    between atoms: _270  and  _271
REMARK  114  A    between atoms: _271  and  _272
REMARK  115  A    between atoms: _281  and  _283
REMARK  116  A    between atoms: _283  and  _284
REMARK  117  A    between atoms: _283  and  _286
REMARK  118  A    between atoms: _286  and  _287
REMARK  119  A    between atoms: _292  and  _294
REMARK  120  A    between atoms: _294  and  _295
REMARK  121  A    between atoms: _294  and  _297
REMARK  122  A    between atoms: _297  and  _298
REMARK  123  A    between atoms: _298  and  _299
REMARK  124  A    between atoms: _299  and  _300
REMARK  125  A    between atoms: _309  and  _311
REMARK  126  A    between atoms: _311  and  _312
REMARK  127  A    between atoms: _311  and  _314
REMARK  128  A    between atoms: _314  and  _315
REMARK  129  A    between atoms: _318  and  _320
REMARK  130  A    between atoms: _320  and  _321
REMARK  131  A    between atoms: _320  and  _323
REMARK  132  A    between atoms: _323  and  _324
REMARK  133  A    between atoms: _327  and  _329
REMARK  134  A    between atoms: _329  and  _330
REMARK  135  A    between atoms: _329  and  _332
REMARK  136  A    between atoms: _332  and  _333
REMARK  137  A    between atoms: _336  and  _338
REMARK  138  A    between atoms: _338  and  _339
REMARK  139  A    between atoms: _338  and  _341
REMARK  140  A    between atoms: _341  and  _342
REMARK  141  A    between atoms: _345  and  _347
REMARK  142  A    between atoms: _347  and  _348
REMARK  143  A    between atoms: _350  and  _352
REMARK  144  A    between atoms: _352  and  _353
REMARK  145  A    between atoms: _356  and  _358
REMARK  146  A    between atoms: _358  and  _359
REMARK  147  A    between atoms: _358  and  _361
REMARK  148  A    between atoms: _361  and  _362
REMARK  149  A    between atoms: _365  and  _367
REMARK  150  A    between atoms: _367  and  _368
REMARK  151  A    between atoms: _367  and  _370
REMARK  152  A    between atoms: _370  and  _371
REMARK  153  A    between atoms: _374  and  _376
REMARK  154  A    between atoms: _376  and  _377
REMARK  155  A    between atoms: _376  and  _379
REMARK  156  A    between atoms: _379  and  _380
REMARK  157  A    between atoms: _383  and  _385
REMARK  158  A    between atoms: _385  and  _386
REMARK  159  A    between atoms: _385  and  _388
REMARK  160  A    between atoms: _388  and  _389
REMARK  161  A    between atoms: _392  and  _394
REMARK  162  A    between atoms: _394  and  _395
REMARK  163  A    between atoms: _394  and  _397
REMARK  164  A    between atoms: _397  and  _398
REMARK  165  A    between atoms: _401  and  _403
REMARK  166  A    between atoms: _403  and  _404
REMARK  167  A    between atoms: _403  and  _406
REMARK  168  A    between atoms: _406  and  _407
REMARK  169  A    between atoms: _407  and  _408
REMARK  170  A    between atoms: _408  and  _409
REMARK  171  A    between atoms: _409  and  _410
REMARK  172  A    between atoms: _414  and  _416
REMARK  173  A    between atoms: _416  and  _417
REMARK  174  A    between atoms: _416  and  _419
REMARK  175  A    between atoms: _419  and  _420
REMARK  176  A    between atoms: _420  and  _421
REMARK  177  A    between atoms: _423  and  _425
REMARK  178  A    between atoms: _425  and  _426
REMARK  179  A    between atoms: _425  and  _428
REMARK  180  A    between atoms: _428  and  _429
REMARK  181  A    between atoms: _432  and  _434
REMARK  182  A    between atoms: _434  and  _435
REMARK  183  A    between atoms: _437  and  _439
REMARK  184  A    between atoms: _439  and  _440
REMARK  185  A    between atoms: _442  and  _444
REMARK  186  A    between atoms: _444  and  _445
REMARK  187  A    between atoms: _444  and  _447
REMARK  188  A    between atoms: _447  and  _448
REMARK  189  A    between atoms: _451  and  _453
REMARK  190  A    between atoms: _453  and  _454
REMARK  191  A    between atoms: _456  and  _458
REMARK  192  A    between atoms: _458  and  _459
REMARK  193  A    between atoms: _461  and  _463
REMARK  194  A    between atoms: _463  and  _464
REMARK  195  A    between atoms: _463  and  _466
REMARK  196  A    between atoms: _466  and  _467
REMARK  197  A    between atoms: _473  and  _475
REMARK  198  A    between atoms: _475  and  _476
REMARK  199  A    between atoms: _475  and  _478
REMARK  200  A    between atoms: _478  and  _479
REMARK  201  A    between atoms: _482  and  _484
REMARK  202  A    between atoms: _484  and  _485
REMARK  203  A    between atoms: _484  and  _487
REMARK  204  A    between atoms: _490  and  _492
REMARK  205  A    between atoms: _492  and  _493
REMARK  206  A    between atoms: _492  and  _495
REMARK  207  A    between atoms: _495  and  _496
REMARK  208  A    between atoms: _500  and  _501
REMARK  209  A    between atoms: _506  and  _508
REMARK  210  A    between atoms: _508  and  _509
REMARK  211  A    between atoms: _508  and  _511
REMARK  212  A    between atoms: _511  and  _512
REMARK  213  A    between atoms: _516  and  _517
REMARK  214  A    between atoms: _522  and  _524
REMARK  215  A    between atoms: _524  and  _525
REMARK  216  A    between atoms: _524  and  _527
REMARK  217  A    between atoms: _530  and  _532
REMARK  218  A    between atoms: _532  and  _533
REMARK  219  A    between atoms: _532  and  _535
REMARK  220  A    between atoms: _535  and  _536
REMARK  221  A    between atoms: _541  and  _543
REMARK  222  A    between atoms: _543  and  _544
REMARK  223  A    between atoms: _543  and  _546
REMARK  224  A    between atoms: _546  and  _547
REMARK  225  A    between atoms: _550  and  _552
REMARK  226  A    between atoms: _552  and  _553
REMARK  227  A    between atoms: _552  and  _555
REMARK  228  A    between atoms: _555  and  _556
REMARK  229  A    between atoms: _559  and  _561
REMARK  230  A    between atoms: _561  and  _562
REMARK  231  A    between atoms: _564  and  _566
REMARK  232  A    between atoms: _566  and  _567
REMARK  233  A    between atoms: _566  and  _569
REMARK  234  A    between atoms: _569  and  _570
REMARK  235  A    between atoms: _570  and  _571
REMARK  236  A    between atoms: _571  and  _572
REMARK  237  A    between atoms: _581  and  _583
REMARK  238  A    between atoms: _583  and  _584
REMARK  239  A    between atoms: _583  and  _586
REMARK  240  A    between atoms: _586  and  _587
REMARK                            x       y       z     vdW  Elec       q    Type
REMARK                         _______ _______ _______ _____ _____    ______ ____
ROOT
ATOM      1  O   HOH     1       9.235  18.524  11.456  0.00  0.00    +0.000 OA
ENDROOT
TORSDOF 0
REMARK  Name = ../refined-set-2016/3nu4/3nu4_pocket.pdb
REMARK  240 active torsions:
REMARK  status: ('A' for Active; 'I' for Inactive)
REMARK    1  A    between atoms: _1  and  _3
REMARK    2  A    between atoms: _3  and  _4
REMARK    3  A    between atoms: _3  and  _6
REMARK    4  A    between atoms: _6  and  _7
REMARK    5  A    between atoms: _7  and  _8
REMARK    6  A    between atoms: _8  and  _9
REMARK    7  A    between atoms: _18  and  _20
REMARK    8  A    between atoms: _20  and  _21
REMARK    9  A    between atoms: _20  and  _23
REMARK   10  A    between atoms: _23  and  _24
REMARK   11  A    between atoms: _27  and  _29
REMARK   12  A    between atoms: _29  and  _30
REMARK   13  A    between atoms: _29  and  _32
REMARK   14  A    between atoms: _32  and  _33
REMARK   15  A    between atoms: _36  and  _38
REMARK   16  A    between atoms: _38  and  _39
REMARK   17  A    between atoms: _38  and  _41
REMARK   18  A    between atoms: _41  and  _42
REMARK   19  A    between atoms: _45  and  _47
REMARK   20  A    between atoms: _47  and  _48
REMARK   21  A    between atoms: _47  and  _50
REMARK   22  A    between atoms: _50  and  _51
REMARK   23  A    between atoms: _54  and  _56
REMARK   24  A    between atoms: _56  and  _57
REMARK   25  A    between atoms: _59  and  _61
REMARK   26  A    between atoms: _61  and  _62
REMARK   27  A    between atoms: _65  and  _67
REMARK   28  A    between atoms: _67  and  _68
REMARK   29  A    between atoms: _67  and  _70
REMARK   30  A    between atoms: _70  and  _71
REMARK   31  A    between atoms: _74  and  _76
REMARK   32  A    between atoms: _76  and  _77
REMARK   33  A    between atoms: _76  and  _79
REMARK   34  A    between atoms: _79  and  _80
REMARK   35  A    between atoms: _83  and  _85
REMARK   36  A    between atoms: _85  and  _86
REMARK   37  A    between atoms: _85  and  _88
REMARK   38  A    between atoms: _88  and  _89
REMARK   39  A    between atoms: _92  and  _94
REMARK   40  A    between atoms: _94  and  _95
REMARK   41  A    between atoms: _94  and  _97
REMARK   42  A    between atoms: _97  and  _98
REMARK   43  A    between atoms: _101  and  _103
REMARK   44  A    between atoms: _103  and  _104
REMARK   45  A    between atoms: _103  and  _106
REMARK   46  A    between atoms: _106  and  _107
REMARK   47  A    between atoms: _107  and  _108
REMARK   48  A    between atoms: _108  and  _109
REMARK   49  A    between atoms: _109  and  _110
REMARK   50  A    between atoms: _114  and  _116
REMARK   51  A    between atoms: _116  and  _117
REMARK   52  A    between atoms: _116  and  _119
REMARK   53  A    between atoms: _119  and  _120
REMARK   54  A    between atoms: _120  and  _121
REMARK   55  A    between atoms: _123  and  _125
REMARK   56  A    between atoms: _125  and  _126
REMARK   57  A    between atoms: _125  and  _128
REMARK   58  A    between atoms: _128  and  _129
REMARK   59  A    between atoms: _132  and  _134
REMARK   60  A    between atoms: _134  and  _135
REMARK   61  A    between atoms: _137  and  _139
REMARK   62  A    between atoms: _139  and  _140
REMARK   63  A    between atoms: _142  and  _144
REMARK   64  A    between atoms: _144  and  _145
REMARK   65  A    between atoms: _144  and  _147
REMARK   66  A    between atoms: _147  and  _148
REMARK   67  A    between atoms: _151  and  _153
REMARK   68  A    between atoms: _153  and  _154
REMARK   69  A    between atoms: _156  and  _158
REMARK   70  A    between atoms: _158  and  _159
REMARK   71  A    between atoms: _161  and  _163
REMARK   72  A    between atoms: _163  and  _164
REMARK   73  A    between atoms: _163  and  _166
REMARK   74  A    between atoms: _166  and  _167
REMARK   75  A    between atoms: _173  and  _175
REMARK   76  A    between atoms: _175  and  _176
REMARK   77  A    between atoms: _175  and  _178
REMARK   78  A    between atoms: _178  and  _179
REMARK   79  A    between atoms: _182  and  _184
REMARK   80  A    between atoms: _184  and  _185
REMARK   81  A    between atoms: _184  and  _187
REMARK   82  A    between atoms: _190  and  _192
REMARK   83  A    between atoms: _192  and  _193
REMARK   84  A    between atoms: _192  and  _195
REMARK   85  A    between atoms: _195  and  _196
REMARK   86  A    between atoms: _200  and  _201
REMARK   87  A    between atoms: _206  and  _208
REMARK   88  A    between atoms: _208  and  _209
REMARK   89  A    between atoms: _208  and  _211
REMARK   90  A    between atoms: _211  and  _212
REMARK   91  A    between atoms: _216  and  _217
REMARK   92  A    between atoms: _222  and  _224
REMARK   93  A    between atoms: _224  and  _225
REMARK   94  A    between atoms: _224  and  _227
REMARK   95  A    between atoms: _230  and  _232
REMARK   96  A    between atoms: _232  and  _233
REMARK   97  A    between atoms: _232  and  _235
REMARK   98  A    between atoms: _235  and  _236
REMARK   99  A    between atoms: _241  and  _243
REMARK  100  A    between atoms: _243  and  _244
REMARK  101  A    between atoms: _243  and  _246
REMARK  102  A    between atoms: _246  and  _247
REMARK  103  A    between atoms: _250  and  _252
REMARK  104  A    between atoms: _252  and  _253
REMARK  105  A    between atoms: _252  and  _255
REMARK  106  A    between atoms: _255  and  _256
REMARK  107  A    between atoms: _259  and  _261
REMARK  108  A    between atoms: _261  and  _262
REMARK  109  A    between atoms: _264  and  _266
REMARK  110  A    between atoms: _266  and  _267
REMARK  111  A    between atoms: _266  and  _269
REMARK  112  A    between atoms: _269  and  _270
REMARK  113  A    between atoms: _270  and  _271
REMARK  114  A    between atoms: _271  and  _272
REMARK  115  A    between atoms: _281  and  _283
REMARK  116  A    between atoms: _283  and  _284
REMARK  117  A    between atoms: _283  and  _286
REMARK  118  A    between atoms: _286  and  _287
REMARK  119  A    between atoms: _292  and  _294
REMARK  120  A    between atoms: _294  and  _295
REMARK  121  A    between atoms: _294  and  _297
REMARK  122  A    between atoms: _297  and  _298
REMARK  123  A    between atoms: _298  and  _299
REMARK  124  A    between atoms: _299  and  _300
REMARK  125  A    between atoms: _309  and  _311
REMARK  126  A    between atoms: _311  and  _312
REMARK  127  A    between atoms: _311  and  _314
REMARK  128  A    between atoms: _314  and  _315
REMARK  129  A    between atoms: _318  and  _320
REMARK  130  A    between atoms: _320  and  _321
REMARK  131  A    between atoms: _320  and  _323
REMARK  132  A    between atoms: _323  and  _324
REMARK  133  A    between atoms: _327  and  _329
REMARK  134  A    between atoms: _329  and  _330
REMARK  135  A    between atoms: _329  and  _332
REMARK  136  A    between atoms: _332  and  _333
REMARK  137  A    between atoms: _336  and  _338
REMARK  138  A    between atoms: _338  and  _339
REMARK  139  A    between atoms: _338  and  _341
REMARK  140  A    between atoms: _341  and  _342
REMARK  141  A    between atoms: _345  and  _347
REMARK  142  A    between atoms: _347  and  _348
REMARK  143  A    between atoms: _350  and  _352
REMARK  144  A    between atoms: _352  and  _353
REMARK  145  A    between atoms: _356  and  _358
REMARK  146  A    between atoms: _358  and  _359
REMARK  147  A    between atoms: _358  and  _361
REMARK  148  A    between atoms: _361  and  _362
REMARK  149  A    between atoms: _365  and  _367
REMARK  150  A    between atoms: _367  and  _368
REMARK  151  A    between atoms: _367  and  _370
REMARK  152  A    between atoms: _370  and  _371
REMARK  153  A    between atoms: _374  and  _376
REMARK  154  A    between atoms: _376  and  _377
REMARK  155  A    between atoms: _376  and  _379
REMARK  156  A    between atoms: _379  and  _380
REMARK  157  A    between atoms: _383  and  _385
REMARK  158  A    between atoms: _385  and  _386
REMARK  159  A    between atoms: _385  and  _388
REMARK  160  A    between atoms: _388  and  _389
REMARK  161  A    between atoms: _392  and  _394
REMARK  162  A    between atoms: _394  and  _395
REMARK  163  A    between atoms: _394  and  _397
REMARK  164  A    between atoms: _397  and  _398
REMARK  165  A    between atoms: _401  and  _403
REMARK  166  A    between atoms: _403  and  _404
REMARK  167  A    between atoms: _403  and  _406
REMARK  168  A    between atoms: _406  and  _407
REMARK  169  A    between atoms: _407  and  _408
REMARK  170  A    between atoms: _408  and  _409
REMARK  171  A    between atoms: _409  and  _410
REMARK  172  A    between atoms: _414  and  _416
REMARK  173  A    between atoms: _416  and  _417
REMARK  174  A    between atoms: _416  and  _419
REMARK  175  A    between atoms: _419  and  _420
REMARK  176  A    between atoms: _420  and  _421
REMARK  177  A    between atoms: _423  and  _425
REMARK  178  A    between atoms: _425  and  _426
REMARK  179  A    between atoms: _425  and  _428
REMARK  180  A    between atoms: _428  and  _429
REMARK  181  A    between atoms: _432  and  _434
REMARK  182  A    between atoms: _434  and  _435
REMARK  183  A    between atoms: _437  and  _439
REMARK  184  A    between atoms: _439  and  _440
REMARK  185  A    between atoms: _442  and  _444
REMARK  186  A    between atoms: _444  and  _445
REMARK  187  A    between atoms: _444  and  _447
REMARK  188  A    between atoms: _447  and  _448
REMARK  189  A    between atoms: _451  and  _453
REMARK  190  A    between atoms: _453  and  _454
REMARK  191  A    between atoms: _456  and  _458
REMARK  192  A    between atoms: _458  and  _459
REMARK  193  A    between atoms: _461  and  _463
REMARK  194  A    between atoms: _463  and  _464
REMARK  195  A    between atoms: _463  and  _466
REMARK  196  A    between atoms: _466  and  _467
REMARK  197  A    between atoms: _473  and  _475
REMARK  198  A    between atoms: _475  and  _476
REMARK  199  A    between atoms: _475  and  _478
REMARK  200  A    between atoms: _478  and  _479
REMARK  201  A    between atoms: _482  and  _484
REMARK  202  A    between atoms: _484  and  _485
REMARK  203  A    between atoms: _484  and  _487
REMARK  204  A    between atoms: _490  and  _492
REMARK  205  A    between atoms: _492  and  _493
REMARK  206  A    between atoms: _492  and  _495
REMARK  207  A    between atoms: _495  and  _496
REMARK  208  A    between atoms: _500  and  _501
REMARK  209  A    between atoms: _506  and  _508
REMARK  210  A    between atoms: _508  and  _509
REMARK  211  A    between atoms: _508  and  _511
REMARK  212  A    between atoms: _511  and  _512
REMARK  213  A    between atoms: _516  and  _517
REMARK  214  A    between atoms: _522  and  _524
REMARK  215  A    between atoms: _524  and  _525
REMARK  216  A    between atoms: _524  and  _527
REMARK  217  A    between atoms: _530  and  _532
REMARK  218  A    between atoms: _532  and  _533
REMARK  219  A    between atoms: _532  and  _535
REMARK  220  A    between atoms: _535  and  _536
REMARK  221  A    between atoms: _541  and  _543
REMARK  222  A    between atoms: _543  and  _544
REMARK  223  A    between atoms: _543  and  _546
REMARK  224  A    between atoms: _546  and  _547
REMARK  225  A    between atoms: _550  and  _552
REMARK  226  A    between atoms: _552  and  _553
REMARK  227  A    between atoms: _552  and  _555
REMARK  228  A    between atoms: _555  and  _556
REMARK  229  A    between atoms: _559  and  _561
REMARK  230  A    between atoms: _561  and  _562
REMARK  231  A    between atoms: _564  and  _566
REMARK  232  A    between atoms: _566  and  _567
REMARK  233  A    between atoms: _566  and  _569
REMARK  234  A    between atoms: _569  and  _570
REMARK  235  A    between atoms: _570  and  _571
REMARK  236  A    between atoms: _571  and  _572
REMARK  237  A    between atoms: _581  and  _583
REMARK  238  A    between atoms: _583  and  _584
REMARK  239  A    between atoms: _583  and  _586
REMARK  240  A    between atoms: _586  and  _587
REMARK                            x       y       z     vdW  Elec       q    Type
REMARK                         _______ _______ _______ _____ _____    ______ ____
ROOT
ATOM      1  O   HOH     1      22.964  23.854  19.212  0.00  0.00    +0.000 OA
ENDROOT
TORSDOF 0
REMARK  Name = ../refined-set-2016/3nu4/3nu4_pocket.pdb
REMARK  240 active torsions:
REMARK  status: ('A' for Active; 'I' for Inactive)
REMARK    1  A    between atoms: _1  and  _3
REMARK    2  A    between atoms: _3  and  _4
REMARK    3  A    between atoms: _3  and  _6
REMARK    4  A    between atoms: _6  and  _7
REMARK    5  A    between atoms: _7  and  _8
REMARK    6  A    between atoms: _8  and  _9
REMARK    7  A    between atoms: _18  and  _20
REMARK    8  A    between atoms: _20  and  _21
REMARK    9  A    between atoms: _20  and  _23
REMARK   10  A    between atoms: _23  and  _24
REMARK   11  A    between atoms: _27  and  _29
REMARK   12  A    between atoms: _29  and  _30
REMARK   13  A    between atoms: _29  and  _32
REMARK   14  A    between atoms: _32  and  _33
REMARK   15  A    between atoms: _36  and  _38
REMARK   16  A    between atoms: _38  and  _39
REMARK   17  A    between atoms: _38  and  _41
REMARK   18  A    between atoms: _41  and  _42
REMARK   19  A    between atoms: _45  and  _47
REMARK   20  A    between atoms: _47  and  _48
REMARK   21  A    between atoms: _47  and  _50
REMARK   22  A    between atoms: _50  and  _51
REMARK   23  A    between atoms: _54  and  _56
REMARK   24  A    between atoms: _56  and  _57
REMARK   25  A    between atoms: _59  and  _61
REMARK   26  A    between atoms: _61  and  _62
REMARK   27  A    between atoms: _65  and  _67
REMARK   28  A    between atoms: _67  and  _68
REMARK   29  A    between atoms: _67  and  _70
REMARK   30  A    between atoms: _70  and  _71
REMARK   31  A    between atoms: _74  and  _76
REMARK   32  A    between atoms: _76  and  _77
REMARK   33  A    between atoms: _76  and  _79
REMARK   34  A    between atoms: _79  and  _80
REMARK   35  A    between atoms: _83  and  _85
REMARK   36  A    between atoms: _85  and  _86
REMARK   37  A    between atoms: _85  and  _88
REMARK   38  A    between atoms: _88  and  _89
REMARK   39  A    between atoms: _92  and  _94
REMARK   40  A    between atoms: _94  and  _95
REMARK   41  A    between atoms: _94  and  _97
REMARK   42  A    between atoms: _97  and  _98
REMARK   43  A    between atoms: _101  and  _103
REMARK   44  A    between atoms: _103  and  _104
REMARK   45  A    between atoms: _103  and  _106
REMARK   46  A    between atoms: _106  and  _107
REMARK   47  A    between atoms: _107  and  _108
REMARK   48  A    between atoms: _108  and  _109
REMARK   49  A    between atoms: _109  and  _110
REMARK   50  A    between atoms: _114  and  _116
REMARK   51  A    between atoms: _116  and  _117
REMARK   52  A    between atoms: _116  and  _119
REMARK   53  A    between atoms: _119  and  _120
REMARK   54  A    between atoms: _120  and  _121
REMARK   55  A    between atoms: _123  and  _125
REMARK   56  A    between atoms: _125  and  _126
REMARK   57  A    between atoms: _125  and  _128
REMARK   58  A    between atoms: _128  and  _129
REMARK   59  A    between atoms: _132  and  _134
REMARK   60  A    between atoms: _134  and  _135
REMARK   61  A    between atoms: _137  and  _139
REMARK   62  A    between atoms: _139  and  _140
REMARK   63  A    between atoms: _142  and  _144
REMARK   64  A    between atoms: _144  and  _145
REMARK   65  A    between atoms: _144  and  _147
REMARK   66  A    between atoms: _147  and  _148
REMARK   67  A    between atoms: _151  and  _153
REMARK   68  A    between atoms: _153  and  _154
REMARK   69  A    between atoms: _156  and  _158
REMARK   70  A    between atoms: _158  and  _159
REMARK   71  A    between atoms: _161  and  _163
REMARK   72  A    between atoms: _163  and  _164
REMARK   73  A    between atoms: _163  and  _166
REMARK   74  A    between atoms: _166  and  _167
REMARK   75  A    between atoms: _173  and  _175
REMARK   76  A    between atoms: _175  and  _176
REMARK   77  A    between atoms: _175  and  _178
REMARK   78  A    between atoms: _178  and  _179
REMARK   79  A    between atoms: _182  and  _184
REMARK   80  A    between atoms: _184  and  _185
REMARK   81  A    between atoms: _184  and  _187
REMARK   82  A    between atoms: _190  and  _192
REMARK   83  A    between atoms: _192  and  _193
REMARK   84  A    between atoms: _192  and  _195
REMARK   85  A    between atoms: _195  and  _196
REMARK   86  A    between atoms: _200  and  _201
REMARK   87  A    between atoms: _206  and  _208
REMARK   88  A    between atoms: _208  and  _209
REMARK   89  A    between atoms: _208  and  _211
REMARK   90  A    between atoms: _211  and  _212
REMARK   91  A    between atoms: _216  and  _217
REMARK   92  A    between atoms: _222  and  _224
REMARK   93  A    between atoms: _224  and  _225
REMARK   94  A    between atoms: _224  and  _227
REMARK   95  A    between atoms: _230  and  _232
REMARK   96  A    between atoms: _232  and  _233
REMARK   97  A    between atoms: _232  and  _235
REMARK   98  A    between atoms: _235  and  _236
REMARK   99  A    between atoms: _241  and  _243
REMARK  100  A    between atoms: _243  and  _244
REMARK  101  A    between atoms: _243  and  _246
REMARK  102  A    between atoms: _246  and  _247
REMARK  103  A    between atoms: _250  and  _252
REMARK  104  A    between atoms: _252  and  _253
REMARK  105  A    between atoms: _252  and  _255
REMARK  106  A    between atoms: _255  and  _256
REMARK  107  A    between atoms: _259  and  _261
REMARK  108  A    between atoms: _261  and  _262
REMARK  109  A    between atoms: _264  and  _266
REMARK  110  A    between atoms: _266  and  _267
REMARK  111  A    between atoms: _266  and  _269
REMARK  112  A    between atoms: _269  and  _270
REMARK  113  A    between atoms: _270  and  _271
REMARK  114  A    between atoms: _271  and  _272
REMARK  115  A    between atoms: _281  and  _283
REMARK  116  A    between atoms: _283  and  _284
REMARK  117  A    between atoms: _283  and  _286
REMARK  118  A    between atoms: _286  and  _287
REMARK  119  A    between atoms: _292  and  _294
REMARK  120  A    between atoms: _294  and  _295
REMARK  121  A    between atoms: _294  and  _297
REMARK  122  A    between atoms: _297  and  _298
REMARK  123  A    between atoms: _298  and  _299
REMARK  124  A    between atoms: _299  and  _300
REMARK  125  A    between atoms: _309  and  _311
REMARK  126  A    between atoms: _311  and  _312
REMARK  127  A    between atoms: _311  and  _314
REMARK  128  A    between atoms: _314  and  _315
REMARK  129  A    between atoms: _318  and  _320
REMARK  130  A    between atoms: _320  and  _321
REMARK  131  A    between atoms: _320  and  _323
REMARK  132  A    between atoms: _323  and  _324
REMARK  133  A    between atoms: _327  and  _329
REMARK  134  A    between atoms: _329  and  _330
REMARK  135  A    between atoms: _329  and  _332
REMARK  136  A    between atoms: _332  and  _333
REMARK  137  A    between atoms: _336  and  _338
REMARK  138  A    between atoms: _338  and  _339
REMARK  139  A    between atoms: _338  and  _341
REMARK  140  A    between atoms: _341  and  _342
REMARK  141  A    between atoms: _345  and  _347
REMARK  142  A    between atoms: _347  and  _348
REMARK  143  A    between atoms: _350  and  _352
REMARK  144  A    between atoms: _352  and  _353
REMARK  145  A    between atoms: _356  and  _358
REMARK  146  A    between atoms: _358  and  _359
REMARK  147  A    between atoms: _358  and  _361
REMARK  148  A    between atoms: _361  and  _362
REMARK  149  A    between atoms: _365  and  _367
REMARK  150  A    between atoms: _367  and  _368
REMARK  151  A    between atoms: _367  and  _370
REMARK  152  A    between atoms: _370  and  _371
REMARK  153  A    between atoms: _374  and  _376
REMARK  154  A    between atoms: _376  and  _377
REMARK  155  A    between atoms: _376  and  _379
REMARK  156  A    between atoms: _379  and  _380
REMARK  157  A    between atoms: _383  and  _385
REMARK  158  A    between atoms: _385  and  _386
REMARK  159  A    between atoms: _385  and  _388
REMARK  160  A    between atoms: _388  and  _389
REMARK  161  A    between atoms: _392  and  _394
REMARK  162  A    between atoms: _394  and  _395
REMARK  163  A    between atoms: _394  and  _397
REMARK  164  A    between atoms: _397  and  _398
REMARK  165  A    between atoms: _401  and  _403
REMARK  166  A    between atoms: _403  and  _404
REMARK  167  A    between atoms: _403  and  _406
REMARK  168  A    between atoms: _406  and  _407
REMARK  169  A    between atoms: _407  and  _408
REMARK  170  A    between atoms: _408  and  _409
REMARK  171  A    between atoms: _409  and  _410
REMARK  172  A    between atoms: _414  and  _416
REMARK  173  A    between atoms: _416  and  _417
REMARK  174  A    between atoms: _416  and  _419
REMARK  175  A    between atoms: _419  and  _420
REMARK  176  A    between atoms: _420  and  _421
REMARK  177  A    between atoms: _423  and  _425
REMARK  178  A    between atoms: _425  and  _426
REMARK  179  A    between atoms: _425  and  _428
REMARK  180  A    between atoms: _428  and  _429
REMARK  181  A    between atoms: _432  and  _434
REMARK  182  A    between atoms: _434  and  _435
REMARK  183  A    between atoms: _437  and  _439
REMARK  184  A    between atoms: _439  and  _440
REMARK  185  A    between atoms: _442  and  _444
REMARK  186  A    between atoms: _444  and  _445
REMARK  187  A    between atoms: _444  and  _447
REMARK  188  A    between atoms: _447  and  _448
REMARK  189  A    between atoms: _451  and  _453
REMARK  190  A    between atoms: _453  and  _454
REMARK  191  A    between atoms: _456  and  _458
REMARK  192  A    between atoms: _458  and  _459
REMARK  193  A    between atoms: _461  and  _463
REMARK  194  A    between atoms: _463  and  _464
REMARK  195  A    between atoms: _463  and  _466
REMARK  196  A    between atoms: _466  and  _467
REMARK  197  A    between atoms: _473  and  _475
REMARK  198  A    between atoms: _475  and  _476
REMARK  199  A    between atoms: _475  and  _478
REMARK  200  A    between atoms: _478  and  _479
REMARK  201  A    between atoms: _482  and  _484
REMARK  202  A    between atoms: _484  and  _485
REMARK  203  A    between atoms: _484  and  _487
REMARK  204  A    between atoms: _490  and  _492
REMARK  205  A    between atoms: _492  and  _493
REMARK  206  A    between atoms: _492  and  _495
REMARK  207  A    between atoms: _495  and  _496
REMARK  208  A    between atoms: _500  and  _501
REMARK  209  A    between atoms: _506  and  _508
REMARK  210  A    between atoms: _508  and  _509
REMARK  211  A    between atoms: _508  and  _511
REMARK  212  A    between atoms: _511  and  _512
REMARK  213  A    between atoms: _516  and  _517
REMARK  214  A    between atoms: _522  and  _524
REMARK  215  A    between atoms: _524  and  _525
REMARK  216  A    between atoms: _524  and  _527
REMARK  217  A    between atoms: _530  and  _532
REMARK  218  A    between atoms: _532  and  _533
REMARK  219  A    between atoms: _532  and  _535
REMARK  220  A    between atoms: _535  and  _536
REMARK  221  A    between atoms: _541  and  _543
REMARK  222  A    between atoms: _543  and  _544
REMARK  223  A    between atoms: _543  and  _546
REMARK  224  A    between atoms: _546  and  _547
REMARK  225  A    between atoms: _550  and  _552
REMARK  226  A    between atoms: _552  and  _553
REMARK  227  A    between atoms: _552  and  _555
REMARK  228  A    between atoms: _555  and  _556
REMARK  229  A    between atoms: _559  and  _561
REMARK  230  A    between atoms: _561  and  _562
REMARK  231  A    between atoms: _564  and  _566
REMARK  232  A    between atoms: _566  and  _567
REMARK  233  A    between atoms: _566  and  _569
REMARK  234  A    between atoms: _569  and  _570
REMARK  235  A    between atoms: _570  and  _571
REMARK  236  A    between atoms: _571  and  _572
REMARK  237  A    between atoms: _581  and  _583
REMARK  238  A    between atoms: _583  and  _584
REMARK  239  A    between atoms: _583  and  _586
REMARK  240  A    between atoms: _586  and  _587
REMARK                            x       y       z     vdW  Elec       q    Type
REMARK                         _______ _______ _______ _____ _____    ______ ____
ROOT
ATOM      1  O   HOH     1      20.546  33.679  10.548  0.00  0.00    +0.000 OA
ENDROOT
TORSDOF 0
REMARK  Name = ../refined-set-2016/3nu4/3nu4_pocket.pdb
REMARK  240 active torsions:
REMARK  status: ('A' for Active; 'I' for Inactive)
REMARK    1  A    between atoms: _1  and  _3
REMARK    2  A    between atoms: _3  and  _4
REMARK    3  A    between atoms: _3  and  _6
REMARK    4  A    between atoms: _6  and  _7
REMARK    5  A    between atoms: _7  and  _8
REMARK    6  A    between atoms: _8  and  _9
REMARK    7  A    between atoms: _18  and  _20
REMARK    8  A    between atoms: _20  and  _21
REMARK    9  A    between atoms: _20  and  _23
REMARK   10  A    between atoms: _23  and  _24
REMARK   11  A    between atoms: _27  and  _29
REMARK   12  A    between atoms: _29  and  _30
REMARK   13  A    between atoms: _29  and  _32
REMARK   14  A    between atoms: _32  and  _33
REMARK   15  A    between atoms: _36  and  _38
REMARK   16  A    between atoms: _38  and  _39
REMARK   17  A    between atoms: _38  and  _41
REMARK   18  A    between atoms: _41  and  _42
REMARK   19  A    between atoms: _45  and  _47
REMARK   20  A    between atoms: _47  and  _48
REMARK   21  A    between atoms: _47  and  _50
REMARK   22  A    between atoms: _50  and  _51
REMARK   23  A    between atoms: _54  and  _56
REMARK   24  A    between atoms: _56  and  _57
REMARK   25  A    between atoms: _59  and  _61
REMARK   26  A    between atoms: _61  and  _62
REMARK   27  A    between atoms: _65  and  _67
REMARK   28  A    between atoms: _67  and  _68
REMARK   29  A    between atoms: _67  and  _70
REMARK   30  A    between atoms: _70  and  _71
REMARK   31  A    between atoms: _74  and  _76
REMARK   32  A    between atoms: _76  and  _77
REMARK   33  A    between atoms: _76  and  _79
REMARK   34  A    between atoms: _79  and  _80
REMARK   35  A    between atoms: _83  and  _85
REMARK   36  A    between atoms: _85  and  _86
REMARK   37  A    between atoms: _85  and  _88
REMARK   38  A    between atoms: _88  and  _89
REMARK   39  A    between atoms: _92  and  _94
REMARK   40  A    between atoms: _94  and  _95
REMARK   41  A    between atoms: _94  and  _97
REMARK   42  A    between atoms: _97  and  _98
REMARK   43  A    between atoms: _101  and  _103
REMARK   44  A    between atoms: _103  and  _104
REMARK   45  A    between atoms: _103  and  _106
REMARK   46  A    between atoms: _106  and  _107
REMARK   47  A    between atoms: _107  and  _108
REMARK   48  A    between atoms: _108  and  _109
REMARK   49  A    between atoms: _109  and  _110
REMARK   50  A    between atoms: _114  and  _116
REMARK   51  A    between atoms: _116  and  _117
REMARK   52  A    between atoms: _116  and  _119
REMARK   53  A    between atoms: _119  and  _120
REMARK   54  A    between atoms: _120  and  _121
REMARK   55  A    between atoms: _123  and  _125
REMARK   56  A    between atoms: _125  and  _126
REMARK   57  A    between atoms: _125  and  _128
REMARK   58  A    between atoms: _128  and  _129
REMARK   59  A    between atoms: _132  and  _134
REMARK   60  A    between atoms: _134  and  _135
REMARK   61  A    between atoms: _137  and  _139
REMARK   62  A    between atoms: _139  and  _140
REMARK   63  A    between atoms: _142  and  _144
REMARK   64  A    between atoms: _144  and  _145
REMARK   65  A    between atoms: _144  and  _147
REMARK   66  A    between atoms: _147  and  _148
REMARK   67  A    between atoms: _151  and  _153
REMARK   68  A    between atoms: _153  and  _154
REMARK   69  A    between atoms: _156  and  _158
REMARK   70  A    between atoms: _158  and  _159
REMARK   71  A    between atoms: _161  and  _163
REMARK   72  A    between atoms: _163  and  _164
REMARK   73  A    between atoms: _163  and  _166
REMARK   74  A    between atoms: _166  and  _167
REMARK   75  A    between atoms: _173  and  _175
REMARK   76  A    between atoms: _175  and  _176
REMARK   77  A    between atoms: _175  and  _178
REMARK   78  A    between atoms: _178  and  _179
REMARK   79  A    between atoms: _182  and  _184
REMARK   80  A    between atoms: _184  and  _185
REMARK   81  A    between atoms: _184  and  _187
REMARK   82  A    between atoms: _190  and  _192
REMARK   83  A    between atoms: _192  and  _193
REMARK   84  A    between atoms: _192  and  _195
REMARK   85  A    between atoms: _195  and  _196
REMARK   86  A    between atoms: _200  and  _201
REMARK   87  A    between atoms: _206  and  _208
REMARK   88  A    between atoms: _208  and  _209
REMARK   89  A    between atoms: _208  and  _211
REMARK   90  A    between atoms: _211  and  _212
REMARK   91  A    between atoms: _216  and  _217
REMARK   92  A    between atoms: _222  and  _224
REMARK   93  A    between atoms: _224  and  _225
REMARK   94  A    between atoms: _224  and  _227
REMARK   95  A    between atoms: _230  and  _232
REMARK   96  A    between atoms: _232  and  _233
REMARK   97  A    between atoms: _232  and  _235
REMARK   98  A    between atoms: _235  and  _236
REMARK   99  A    between atoms: _241  and  _243
REMARK  100  A    between atoms: _243  and  _244
REMARK  101  A    between atoms: _243  and  _246
REMARK  102  A    between atoms: _246  and  _247
REMARK  103  A    between atoms: _250  and  _252
REMARK  104  A    between atoms: _252  and  _253
REMARK  105  A    between atoms: _252  and  _255
REMARK  106  A    between atoms: _255  and  _256
REMARK  107  A    between atoms: _259  and  _261
REMARK  108  A    between atoms: _261  and  _262
REMARK  109  A    between atoms: _264  and  _266
REMARK  110  A    between atoms: _266  and  _267
REMARK  111  A    between atoms: _266  and  _269
REMARK  112  A    between atoms: _269  and  _270
REMARK  113  A    between atoms: _270  and  _271
REMARK  114  A    between atoms: _271  and  _272
REMARK  115  A    between atoms: _281  and  _283
REMARK  116  A    between atoms: _283  and  _284
REMARK  117  A    between atoms: _283  and  _286
REMARK  118  A    between atoms: _286  and  _287
REMARK  119  A    between atoms: _292  and  _294
REMARK  120  A    between atoms: _294  and  _295
REMARK  121  A    between atoms: _294  and  _297
REMARK  122  A    between atoms: _297  and  _298
REMARK  123  A    between atoms: _298  and  _299
REMARK  124  A    between atoms: _299  and  _300
REMARK  125  A    between atoms: _309  and  _311
REMARK  126  A    between atoms: _311  and  _312
REMARK  127  A    between atoms: _311  and  _314
REMARK  128  A    between atoms: _314  and  _315
REMARK  129  A    between atoms: _318  and  _320
REMARK  130  A    between atoms: _320  and  _321
REMARK  131  A    between atoms: _320  and  _323
REMARK  132  A    between atoms: _323  and  _324
REMARK  133  A    between atoms: _327  and  _329
REMARK  134  A    between atoms: _329  and  _330
REMARK  135  A    between atoms: _329  and  _332
REMARK  136  A    between atoms: _332  and  _333
REMARK  137  A    between atoms: _336  and  _338
REMARK  138  A    between atoms: _338  and  _339
REMARK  139  A    between atoms: _338  and  _341
REMARK  140  A    between atoms: _341  and  _342
REMARK  141  A    between atoms: _345  and  _347
REMARK  142  A    between atoms: _347  and  _348
REMARK  143  A    between atoms: _350  and  _352
REMARK  144  A    between atoms: _352  and  _353
REMARK  145  A    between atoms: _356  and  _358
REMARK  146  A    between atoms: _358  and  _359
REMARK  147  A    between atoms: _358  and  _361
REMARK  148  A    between atoms: _361  and  _362
REMARK  149  A    between atoms: _365  and  _367
REMARK  150  A    between atoms: _367  and  _368
REMARK  151  A    between atoms: _367  and  _370
REMARK  152  A    between atoms: _370  and  _371
REMARK  153  A    between atoms: _374  and  _376
REMARK  154  A    between atoms: _376  and  _377
REMARK  155  A    between atoms: _376  and  _379
REMARK  156  A    between atoms: _379  and  _380
REMARK  157  A    between atoms: _383  and  _385
REMARK  158  A    between atoms: _385  and  _386
REMARK  159  A    between atoms: _385  and  _388
REMARK  160  A    between atoms: _388  and  _389
REMARK  161  A    between atoms: _392  and  _394
REMARK  162  A    between atoms: _394  and  _395
REMARK  163  A    between atoms: _394  and  _397
REMARK  164  A    between atoms: _397  and  _398
REMARK  165  A    between atoms: _401  and  _403
REMARK  166  A    between atoms: _403  and  _404
REMARK  167  A    between atoms: _403  and  _406
REMARK  168  A    between atoms: _406  and  _407
REMARK  169  A    between atoms: _407  and  _408
REMARK  170  A    between atoms: _408  and  _409
REMARK  171  A    between atoms: _409  and  _410
REMARK  172  A    between atoms: _414  and  _416
REMARK  173  A    between atoms: _416  and  _417
REMARK  174  A    between atoms: _416  and  _419
REMARK  175  A    between atoms: _419  and  _420
REMARK  176  A    between atoms: _420  and  _421
REMARK  177  A    between atoms: _423  and  _425
REMARK  178  A    between atoms: _425  and  _426
REMARK  179  A    between atoms: _425  and  _428
REMARK  180  A    between atoms: _428  and  _429
REMARK  181  A    between atoms: _432  and  _434
REMARK  182  A    between atoms: _434  and  _435
REMARK  183  A    between atoms: _437  and  _439
REMARK  184  A    between atoms: _439  and  _440
REMARK  185  A    between atoms: _442  and  _444
REMARK  186  A    between atoms: _444  and  _445
REMARK  187  A    between atoms: _444  and  _447
REMARK  188  A    between atoms: _447  and  _448
REMARK  189  A    between atoms: _451  and  _453
REMARK  190  A    between atoms: _453  and  _454
REMARK  191  A    between atoms: _456  and  _458
REMARK  192  A    between atoms: _458  and  _459
REMARK  193  A    between atoms: _461  and  _463
REMARK  194  A    between atoms: _463  and  _464
REMARK  195  A    between atoms: _463  and  _466
REMARK  196  A    between atoms: _466  and  _467
REMARK  197  A    between atoms: _473  and  _475
REMARK  198  A    between atoms: _475  and  _476
REMARK  199  A    between atoms: _475  and  _478
REMARK  200  A    between atoms: _478  and  _479
REMARK  201  A    between atoms: _482  and  _484
REMARK  202  A    between atoms: _484  and  _485
REMARK  203  A    between atoms: _484  and  _487
REMARK  204  A    between atoms: _490  and  _492
REMARK  205  A    between atoms: _492  and  _493
REMARK  206  A    between atoms: _492  and  _495
REMARK  207  A    between atoms: _495  and  _496
REMARK  208  A    between atoms: _500  and  _501
REMARK  209  A    between atoms: _506  and  _508
REMARK  210  A    between atoms: _508  and  _509
REMARK  211  A    between atoms: _508  and  _511
REMARK  212  A    between atoms: _511  and  _512
REMARK  213  A    between atoms: _516  and  _517
REMARK  214  A    between atoms: _522  and  _524
REMARK  215  A    between atoms: _524  and  _525
REMARK  216  A    between atoms: _524  and  _527
REMARK  217  A    between atoms: _530  and  _532
REMARK  218  A    between atoms: _532  and  _533
REMARK  219  A    between atoms: _532  and  _535
REMARK  220  A    between atoms: _535  and  _536
REMARK  221  A    between atoms: _541  and  _543
REMARK  222  A    between atoms: _543  and  _544
REMARK  223  A    between atoms: _543  and  _546
REMARK  224  A    between atoms: _546  and  _547
REMARK  225  A    between atoms: _550  and  _552
REMARK  226  A    between atoms: _552  and  _553
REMARK  227  A    between atoms: _552  and  _555
REMARK  228  A    between atoms: _555  and  _556
REMARK  229  A    between atoms: _559  and  _561
REMARK  230  A    between atoms: _561  and  _562
REMARK  231  A    between atoms: _564  and  _566
REMARK  232  A    between atoms: _566  and  _567
REMARK  233  A    between atoms: _566  and  _569
REMARK  234  A    between atoms: _569  and  _570
REMARK  235  A    between atoms: _570  and  _571
REMARK  236  A    between atoms: _571  and  _572
REMARK  237  A    between atoms: _581  and  _583
REMARK  238  A    between atoms: _583  and  _584
REMARK  239  A    between atoms: _583  and  _586
REMARK  240  A    between atoms: _586  and  _587
REMARK                            x       y       z     vdW  Elec       q    Type
REMARK                         _______ _______ _______ _____ _____    ______ ____
ROOT
ATOM      1  O   HOH     1      18.078  20.511  16.783  0.00  0.00    +0.000 OA
ENDROOT
TORSDOF 0
REMARK  Name = ../refined-set-2016/3nu4/3nu4_pocket.pdb
REMARK  240 active torsions:
REMARK  status: ('A' for Active; 'I' for Inactive)
REMARK    1  A    between atoms: _1  and  _3
REMARK    2  A    between atoms: _3  and  _4
REMARK    3  A    between atoms: _3  and  _6
REMARK    4  A    between atoms: _6  and  _7
REMARK    5  A    between atoms: _7  and  _8
REMARK    6  A    between atoms: _8  and  _9
REMARK    7  A    between atoms: _18  and  _20
REMARK    8  A    between atoms: _20  and  _21
REMARK    9  A    between atoms: _20  and  _23
REMARK   10  A    between atoms: _23  and  _24
REMARK   11  A    between atoms: _27  and  _29
REMARK   12  A    between atoms: _29  and  _30
REMARK   13  A    between atoms: _29  and  _32
REMARK   14  A    between atoms: _32  and  _33
REMARK   15  A    between atoms: _36  and  _38
REMARK   16  A    between atoms: _38  and  _39
REMARK   17  A    between atoms: _38  and  _41
REMARK   18  A    between atoms: _41  and  _42
REMARK   19  A    between atoms: _45  and  _47
REMARK   20  A    between atoms: _47  and  _48
REMARK   21  A    between atoms: _47  and  _50
REMARK   22  A    between atoms: _50  and  _51
REMARK   23  A    between atoms: _54  and  _56
REMARK   24  A    between atoms: _56  and  _57
REMARK   25  A    between atoms: _59  and  _61
REMARK   26  A    between atoms: _61  and  _62
REMARK   27  A    between atoms: _65  and  _67
REMARK   28  A    between atoms: _67  and  _68
REMARK   29  A    between atoms: _67  and  _70
REMARK   30  A    between atoms: _70  and  _71
REMARK   31  A    between atoms: _74  and  _76
REMARK   32  A    between atoms: _76  and  _77
REMARK   33  A    between atoms: _76  and  _79
REMARK   34  A    between atoms: _79  and  _80
REMARK   35  A    between atoms: _83  and  _85
REMARK   36  A    between atoms: _85  and  _86
REMARK   37  A    between atoms: _85  and  _88
REMARK   38  A    between atoms: _88  and  _89
REMARK   39  A    between atoms: _92  and  _94
REMARK   40  A    between atoms: _94  and  _95
REMARK   41  A    between atoms: _94  and  _97
REMARK   42  A    between atoms: _97  and  _98
REMARK   43  A    between atoms: _101  and  _103
REMARK   44  A    between atoms: _103  and  _104
REMARK   45  A    between atoms: _103  and  _106
REMARK   46  A    between atoms: _106  and  _107
REMARK   47  A    between atoms: _107  and  _108
REMARK   48  A    between atoms: _108  and  _109
REMARK   49  A    between atoms: _109  and  _110
REMARK   50  A    between atoms: _114  and  _116
REMARK   51  A    between atoms: _116  and  _117
REMARK   52  A    between atoms: _116  and  _119
REMARK   53  A    between atoms: _119  and  _120
REMARK   54  A    between atoms: _120  and  _121
REMARK   55  A    between atoms: _123  and  _125
REMARK   56  A    between atoms: _125  and  _126
REMARK   57  A    between atoms: _125  and  _128
REMARK   58  A    between atoms: _128  and  _129
REMARK   59  A    between atoms: _132  and  _134
REMARK   60  A    between atoms: _134  and  _135
REMARK   61  A    between atoms: _137  and  _139
REMARK   62  A    between atoms: _139  and  _140
REMARK   63  A    between atoms: _142  and  _144
REMARK   64  A    between atoms: _144  and  _145
REMARK   65  A    between atoms: _144  and  _147
REMARK   66  A    between atoms: _147  and  _148
REMARK   67  A    between atoms: _151  and  _153
REMARK   68  A    between atoms: _153  and  _154
REMARK   69  A    between atoms: _156  and  _158
REMARK   70  A    between atoms: _158  and  _159
REMARK   71  A    between atoms: _161  and  _163
REMARK   72  A    between atoms: _163  and  _164
REMARK   73  A    between atoms: _163  and  _166
REMARK   74  A    between atoms: _166  and  _167
REMARK   75  A    between atoms: _173  and  _175
REMARK   76  A    between atoms: _175  and  _176
REMARK   77  A    between atoms: _175  and  _178
REMARK   78  A    between atoms: _178  and  _179
REMARK   79  A    between atoms: _182  and  _184
REMARK   80  A    between atoms: _184  and  _185
REMARK   81  A    between atoms: _184  and  _187
REMARK   82  A    between atoms: _190  and  _192
REMARK   83  A    between atoms: _192  and  _193
REMARK   84  A    between atoms: _192  and  _195
REMARK   85  A    between atoms: _195  and  _196
REMARK   86  A    between atoms: _200  and  _201
REMARK   87  A    between atoms: _206  and  _208
REMARK   88  A    between atoms: _208  and  _209
REMARK   89  A    between atoms: _208  and  _211
REMARK   90  A    between atoms: _211  and  _212
REMARK   91  A    between atoms: _216  and  _217
REMARK   92  A    between atoms: _222  and  _224
REMARK   93  A    between atoms: _224  and  _225
REMARK   94  A    between atoms: _224  and  _227
REMARK   95  A    between atoms: _230  and  _232
REMARK   96  A    between atoms: _232  and  _233
REMARK   97  A    between atoms: _232  and  _235
REMARK   98  A    between atoms: _235  and  _236
REMARK   99  A    between atoms: _241  and  _243
REMARK  100  A    between atoms: _243  and  _244
REMARK  101  A    between atoms: _243  and  _246
REMARK  102  A    between atoms: _246  and  _247
REMARK  103  A    between atoms: _250  and  _252
REMARK  104  A    between atoms: _252  and  _253
REMARK  105  A    between atoms: _252  and  _255
REMARK  106  A    between atoms: _255  and  _256
REMARK  107  A    between atoms: _259  and  _261
REMARK  108  A    between atoms: _261  and  _262
REMARK  109  A    between atoms: _264  and  _266
REMARK  110  A    between atoms: _266  and  _267
REMARK  111  A    between atoms: _266  and  _269
REMARK  112  A    between atoms: _269  and  _270
REMARK  113  A    between atoms: _270  and  _271
REMARK  114  A    between atoms: _271  and  _272
REMARK  115  A    between atoms: _281  and  _283
REMARK  116  A    between atoms: _283  and  _284
REMARK  117  A    between atoms: _283  and  _286
REMARK  118  A    between atoms: _286  and  _287
REMARK  119  A    between atoms: _292  and  _294
REMARK  120  A    between atoms: _294  and  _295
REMARK  121  A    between atoms: _294  and  _297
REMARK  122  A    between atoms: _297  and  _298
REMARK  123  A    between atoms: _298  and  _299
REMARK  124  A    between atoms: _299  and  _300
REMARK  125  A    between atoms: _309  and  _311
REMARK  126  A    between atoms: _311  and  _312
REMARK  127  A    between atoms: _311  and  _314
REMARK  128  A    between atoms: _314  and  _315
REMARK  129  A    between atoms: _318  and  _320
REMARK  130  A    between atoms: _320  and  _321
REMARK  131  A    between atoms: _320  and  _323
REMARK  132  A    between atoms: _323  and  _324
REMARK  133  A    between atoms: _327  and  _329
REMARK  134  A    between atoms: _329  and  _330
REMARK  135  A    between atoms: _329  and  _332
REMARK  136  A    between atoms: _332  and  _333
REMARK  137  A    between atoms: _336  and  _338
REMARK  138  A    between atoms: _338  and  _339
REMARK  139  A    between atoms: _338  and  _341
REMARK  140  A    between atoms: _341  and  _342
REMARK  141  A    between atoms: _345  and  _347
REMARK  142  A    between atoms: _347  and  _348
REMARK  143  A    between atoms: _350  and  _352
REMARK  144  A    between atoms: _352  and  _353
REMARK  145  A    between atoms: _356  and  _358
REMARK  146  A    between atoms: _358  and  _359
REMARK  147  A    between atoms: _358  and  _361
REMARK  148  A    between atoms: _361  and  _362
REMARK  149  A    between atoms: _365  and  _367
REMARK  150  A    between atoms: _367  and  _368
REMARK  151  A    between atoms: _367  and  _370
REMARK  152  A    between atoms: _370  and  _371
REMARK  153  A    between atoms: _374  and  _376
REMARK  154  A    between atoms: _376  and  _377
REMARK  155  A    between atoms: _376  and  _379
REMARK  156  A    between atoms: _379  and  _380
REMARK  157  A    between atoms: _383  and  _385
REMARK  158  A    between atoms: _385  and  _386
REMARK  159  A    between atoms: _385  and  _388
REMARK  160  A    between atoms: _388  and  _389
REMARK  161  A    between atoms: _392  and  _394
REMARK  162  A    between atoms: _394  and  _395
REMARK  163  A    between atoms: _394  and  _397
REMARK  164  A    between atoms: _397  and  _398
REMARK  165  A    between atoms: _401  and  _403
REMARK  166  A    between atoms: _403  and  _404
REMARK  167  A    between atoms: _403  and  _406
REMARK  168  A    between atoms: _406  and  _407
REMARK  169  A    between atoms: _407  and  _408
REMARK  170  A    between atoms: _408  and  _409
REMARK  171  A    between atoms: _409  and  _410
REMARK  172  A    between atoms: _414  and  _416
REMARK  173  A    between atoms: _416  and  _417
REMARK  174  A    between atoms: _416  and  _419
REMARK  175  A    between atoms: _419  and  _420
REMARK  176  A    between atoms: _420  and  _421
REMARK  177  A    between atoms: _423  and  _425
REMARK  178  A    between atoms: _425  and  _426
REMARK  179  A    between atoms: _425  and  _428
REMARK  180  A    between atoms: _428  and  _429
REMARK  181  A    between atoms: _432  and  _434
REMARK  182  A    between atoms: _434  and  _435
REMARK  183  A    between atoms: _437  and  _439
REMARK  184  A    between atoms: _439  and  _440
REMARK  185  A    between atoms: _442  and  _444
REMARK  186  A    between atoms: _444  and  _445
REMARK  187  A    between atoms: _444  and  _447
REMARK  188  A    between atoms: _447  and  _448
REMARK  189  A    between atoms: _451  and  _453
REMARK  190  A    between atoms: _453  and  _454
REMARK  191  A    between atoms: _456  and  _458
REMARK  192  A    between atoms: _458  and  _459
REMARK  193  A    between atoms: _461  and  _463
REMARK  194  A    between atoms: _463  and  _464
REMARK  195  A    between atoms: _463  and  _466
REMARK  196  A    between atoms: _466  and  _467
REMARK  197  A    between atoms: _473  and  _475
REMARK  198  A    between atoms: _475  and  _476
REMARK  199  A    between atoms: _475  and  _478
REMARK  200  A    between atoms: _478  and  _479
REMARK  201  A    between atoms: _482  and  _484
REMARK  202  A    between atoms: _484  and  _485
REMARK  203  A    between atoms: _484  and  _487
REMARK  204  A    between atoms: _490  and  _492
REMARK  205  A    between atoms: _492  and  _493
REMARK  206  A    between atoms: _492  and  _495
REMARK  207  A    between atoms: _495  and  _496
REMARK  208  A    between atoms: _500  and  _501
REMARK  209  A    between atoms: _506  and  _508
REMARK  210  A    between atoms: _508  and  _509
REMARK  211  A    between atoms: _508  and  _511
REMARK  212  A    between atoms: _511  and  _512
REMARK  213  A    between atoms: _516  and  _517
REMARK  214  A    between atoms: _522  and  _524
REMARK  215  A    between atoms: _524  and  _525
REMARK  216  A    between atoms: _524  and  _527
REMARK  217  A    between atoms: _530  and  _532
REMARK  218  A    between atoms: _532  and  _533
REMARK  219  A    between atoms: _532  and  _535
REMARK  220  A    between atoms: _535  and  _536
REMARK  221  A    between atoms: _541  and  _543
REMARK  222  A    between atoms: _543  and  _544
REMARK  223  A    between atoms: _543  and  _546
REMARK  224  A    between atoms: _546  and  _547
REMARK  225  A    between atoms: _550  and  _552
REMARK  226  A    between atoms: _552  and  _553
REMARK  227  A    between atoms: _552  and  _555
REMARK  228  A    between atoms: _555  and  _556
REMARK  229  A    between atoms: _559  and  _561
REMARK  230  A    between atoms: _561  and  _562
REMARK  231  A    between atoms: _564  and  _566
REMARK  232  A    between atoms: _566  and  _567
REMARK  233  A    between atoms: _566  and  _569
REMARK  234  A    between atoms: _569  and  _570
REMARK  235  A    between atoms: _570  and  _571
REMARK  236  A    between atoms: _571  and  _572
REMARK  237  A    between atoms: _581  and  _583
REMARK  238  A    between atoms: _583  and  _584
REMARK  239  A    between atoms: _583  and  _586
REMARK  240  A    between atoms: _586  and  _587
REMARK                            x       y       z     vdW  Elec       q    Type
REMARK                         _______ _______ _______ _____ _____    ______ ____
ROOT
ATOM      1  O   HOH     1       7.648  23.695  18.324  0.00  0.00    +0.000 OA
ENDROOT
TORSDOF 0
REMARK  Name = ../refined-set-2016/3nu4/3nu4_pocket.pdb
REMARK  240 active torsions:
REMARK  status: ('A' for Active; 'I' for Inactive)
REMARK    1  A    between atoms: _1  and  _3
REMARK    2  A    between atoms: _3  and  _4
REMARK    3  A    between atoms: _3  and  _6
REMARK    4  A    between atoms: _6  and  _7
REMARK    5  A    between atoms: _7  and  _8
REMARK    6  A    between atoms: _8  and  _9
REMARK    7  A    between atoms: _18  and  _20
REMARK    8  A    between atoms: _20  and  _21
REMARK    9  A    between atoms: _20  and  _23
REMARK   10  A    between atoms: _23  and  _24
REMARK   11  A    between atoms: _27  and  _29
REMARK   12  A    between atoms: _29  and  _30
REMARK   13  A    between atoms: _29  and  _32
REMARK   14  A    between atoms: _32  and  _33
REMARK   15  A    between atoms: _36  and  _38
REMARK   16  A    between atoms: _38  and  _39
REMARK   17  A    between atoms: _38  and  _41
REMARK   18  A    between atoms: _41  and  _42
REMARK   19  A    between atoms: _45  and  _47
REMARK   20  A    between atoms: _47  and  _48
REMARK   21  A    between atoms: _47  and  _50
REMARK   22  A    between atoms: _50  and  _51
REMARK   23  A    between atoms: _54  and  _56
REMARK   24  A    between atoms: _56  and  _57
REMARK   25  A    between atoms: _59  and  _61
REMARK   26  A    between atoms: _61  and  _62
REMARK   27  A    between atoms: _65  and  _67
REMARK   28  A    between atoms: _67  and  _68
REMARK   29  A    between atoms: _67  and  _70
REMARK   30  A    between atoms: _70  and  _71
REMARK   31  A    between atoms: _74  and  _76
REMARK   32  A    between atoms: _76  and  _77
REMARK   33  A    between atoms: _76  and  _79
REMARK   34  A    between atoms: _79  and  _80
REMARK   35  A    between atoms: _83  and  _85
REMARK   36  A    between atoms: _85  and  _86
REMARK   37  A    between atoms: _85  and  _88
REMARK   38  A    between atoms: _88  and  _89
REMARK   39  A    between atoms: _92  and  _94
REMARK   40  A    between atoms: _94  and  _95
REMARK   41  A    between atoms: _94  and  _97
REMARK   42  A    between atoms: _97  and  _98
REMARK   43  A    between atoms: _101  and  _103
REMARK   44  A    between atoms: _103  and  _104
REMARK   45  A    between atoms: _103  and  _106
REMARK   46  A    between atoms: _106  and  _107
REMARK   47  A    between atoms: _107  and  _108
REMARK   48  A    between atoms: _108  and  _109
REMARK   49  A    between atoms: _109  and  _110
REMARK   50  A    between atoms: _114  and  _116
REMARK   51  A    between atoms: _116  and  _117
REMARK   52  A    between atoms: _116  and  _119
REMARK   53  A    between atoms: _119  and  _120
REMARK   54  A    between atoms: _120  and  _121
REMARK   55  A    between atoms: _123  and  _125
REMARK   56  A    between atoms: _125  and  _126
REMARK   57  A    between atoms: _125  and  _128
REMARK   58  A    between atoms: _128  and  _129
REMARK   59  A    between atoms: _132  and  _134
REMARK   60  A    between atoms: _134  and  _135
REMARK   61  A    between atoms: _137  and  _139
REMARK   62  A    between atoms: _139  and  _140
REMARK   63  A    between atoms: _142  and  _144
REMARK   64  A    between atoms: _144  and  _145
REMARK   65  A    between atoms: _144  and  _147
REMARK   66  A    between atoms: _147  and  _148
REMARK   67  A    between atoms: _151  and  _153
REMARK   68  A    between atoms: _153  and  _154
REMARK   69  A    between atoms: _156  and  _158
REMARK   70  A    between atoms: _158  and  _159
REMARK   71  A    between atoms: _161  and  _163
REMARK   72  A    between atoms: _163  and  _164
REMARK   73  A    between atoms: _163  and  _166
REMARK   74  A    between atoms: _166  and  _167
REMARK   75  A    between atoms: _173  and  _175
REMARK   76  A    between atoms: _175  and  _176
REMARK   77  A    between atoms: _175  and  _178
REMARK   78  A    between atoms: _178  and  _179
REMARK   79  A    between atoms: _182  and  _184
REMARK   80  A    between atoms: _184  and  _185
REMARK   81  A    between atoms: _184  and  _187
REMARK   82  A    between atoms: _190  and  _192
REMARK   83  A    between atoms: _192  and  _193
REMARK   84  A    between atoms: _192  and  _195
REMARK   85  A    between atoms: _195  and  _196
REMARK   86  A    between atoms: _200  and  _201
REMARK   87  A    between atoms: _206  and  _208
REMARK   88  A    between atoms: _208  and  _209
REMARK   89  A    between atoms: _208  and  _211
REMARK   90  A    between atoms: _211  and  _212
REMARK   91  A    between atoms: _216  and  _217
REMARK   92  A    between atoms: _222  and  _224
REMARK   93  A    between atoms: _224  and  _225
REMARK   94  A    between atoms: _224  and  _227
REMARK   95  A    between atoms: _230  and  _232
REMARK   96  A    between atoms: _232  and  _233
REMARK   97  A    between atoms: _232  and  _235
REMARK   98  A    between atoms: _235  and  _236
REMARK   99  A    between atoms: _241  and  _243
REMARK  100  A    between atoms: _243  and  _244
REMARK  101  A    between atoms: _243  and  _246
REMARK  102  A    between atoms: _246  and  _247
REMARK  103  A    between atoms: _250  and  _252
REMARK  104  A    between atoms: _252  and  _253
REMARK  105  A    between atoms: _252  and  _255
REMARK  106  A    between atoms: _255  and  _256
REMARK  107  A    between atoms: _259  and  _261
REMARK  108  A    between atoms: _261  and  _262
REMARK  109  A    between atoms: _264  and  _266
REMARK  110  A    between atoms: _266  and  _267
REMARK  111  A    between atoms: _266  and  _269
REMARK  112  A    between atoms: _269  and  _270
REMARK  113  A    between atoms: _270  and  _271
REMARK  114  A    between atoms: _271  and  _272
REMARK  115  A    between atoms: _281  and  _283
REMARK  116  A    between atoms: _283  and  _284
REMARK  117  A    between atoms: _283  and  _286
REMARK  118  A    between atoms: _286  and  _287
REMARK  119  A    between atoms: _292  and  _294
REMARK  120  A    between atoms: _294  and  _295
REMARK  121  A    between atoms: _294  and  _297
REMARK  122  A    between atoms: _297  and  _298
REMARK  123  A    between atoms: _298  and  _299
REMARK  124  A    between atoms: _299  and  _300
REMARK  125  A    between atoms: _309  and  _311
REMARK  126  A    between atoms: _311  and  _312
REMARK  127  A    between atoms: _311  and  _314
REMARK  128  A    between atoms: _314  and  _315
REMARK  129  A    between atoms: _318  and  _320
REMARK  130  A    between atoms: _320  and  _321
REMARK  131  A    between atoms: _320  and  _323
REMARK  132  A    between atoms: _323  and  _324
REMARK  133  A    between atoms: _327  and  _329
REMARK  134  A    between atoms: _329  and  _330
REMARK  135  A    between atoms: _329  and  _332
REMARK  136  A    between atoms: _332  and  _333
REMARK  137  A    between atoms: _336  and  _338
REMARK  138  A    between atoms: _338  and  _339
REMARK  139  A    between atoms: _338  and  _341
REMARK  140  A    between atoms: _341  and  _342
REMARK  141  A    between atoms: _345  and  _347
REMARK  142  A    between atoms: _347  and  _348
REMARK  143  A    between atoms: _350  and  _352
REMARK  144  A    between atoms: _352  and  _353
REMARK  145  A    between atoms: _356  and  _358
REMARK  146  A    between atoms: _358  and  _359
REMARK  147  A    between atoms: _358  and  _361
REMARK  148  A    between atoms: _361  and  _362
REMARK  149  A    between atoms: _365  and  _367
REMARK  150  A    between atoms: _367  and  _368
REMARK  151  A    between atoms: _367  and  _370
REMARK  152  A    between atoms: _370  and  _371
REMARK  153  A    between atoms: _374  and  _376
REMARK  154  A    between atoms: _376  and  _377
REMARK  155  A    between atoms: _376  and  _379
REMARK  156  A    between atoms: _379  and  _380
REMARK  157  A    between atoms: _383  and  _385
REMARK  158  A    between atoms: _385  and  _386
REMARK  159  A    between atoms: _385  and  _388
REMARK  160  A    between atoms: _388  and  _389
REMARK  161  A    between atoms: _392  and  _394
REMARK  162  A    between atoms: _394  and  _395
REMARK  163  A    between atoms: _394  and  _397
REMARK  164  A    between atoms: _397  and  _398
REMARK  165  A    between atoms: _401  and  _403
REMARK  166  A    between atoms: _403  and  _404
REMARK  167  A    between atoms: _403  and  _406
REMARK  168  A    between atoms: _406  and  _407
REMARK  169  A    between atoms: _407  and  _408
REMARK  170  A    between atoms: _408  and  _409
REMARK  171  A    between atoms: _409  and  _410
REMARK  172  A    between atoms: _414  and  _416
REMARK  173  A    between atoms: _416  and  _417
REMARK  174  A    between atoms: _416  and  _419
REMARK  175  A    between atoms: _419  and  _420
REMARK  176  A    between atoms: _420  and  _421
REMARK  177  A    between atoms: _423  and  _425
REMARK  178  A    between atoms: _425  and  _426
REMARK  179  A    between atoms: _425  and  _428
REMARK  180  A    between atoms: _428  and  _429
REMARK  181  A    between atoms: _432  and  _434
REMARK  182  A    between atoms: _434  and  _435
REMARK  183  A    between atoms: _437  and  _439
REMARK  184  A    between atoms: _439  and  _440
REMARK  185  A    between atoms: _442  and  _444
REMARK  186  A    between atoms: _444  and  _445
REMARK  187  A    between atoms: _444  and  _447
REMARK  188  A    between atoms: _447  and  _448
REMARK  189  A    between atoms: _451  and  _453
REMARK  190  A    between atoms: _453  and  _454
REMARK  191  A    between atoms: _456  and  _458
REMARK  192  A    between atoms: _458  and  _459
REMARK  193  A    between atoms: _461  and  _463
REMARK  194  A    between atoms: _463  and  _464
REMARK  195  A    between atoms: _463  and  _466
REMARK  196  A    between atoms: _466  and  _467
REMARK  197  A    between atoms: _473  and  _475
REMARK  198  A    between atoms: _475  and  _476
REMARK  199  A    between atoms: _475  and  _478
REMARK  200  A    between atoms: _478  and  _479
REMARK  201  A    between atoms: _482  and  _484
REMARK  202  A    between atoms: _484  and  _485
REMARK  203  A    between atoms: _484  and  _487
REMARK  204  A    between atoms: _490  and  _492
REMARK  205  A    between atoms: _492  and  _493
REMARK  206  A    between atoms: _492  and  _495
REMARK  207  A    between atoms: _495  and  _496
REMARK  208  A    between atoms: _500  and  _501
REMARK  209  A    between atoms: _506  and  _508
REMARK  210  A    between atoms: _508  and  _509
REMARK  211  A    between atoms: _508  and  _511
REMARK  212  A    between atoms: _511  and  _512
REMARK  213  A    between atoms: _516  and  _517
REMARK  214  A    between atoms: _522  and  _524
REMARK  215  A    between atoms: _524  and  _525
REMARK  216  A    between atoms: _524  and  _527
REMARK  217  A    between atoms: _530  and  _532
REMARK  218  A    between atoms: _532  and  _533
REMARK  219  A    between atoms: _532  and  _535
REMARK  220  A    between atoms: _535  and  _536
REMARK  221  A    between atoms: _541  and  _543
REMARK  222  A    between atoms: _543  and  _544
REMARK  223  A    between atoms: _543  and  _546
REMARK  224  A    between atoms: _546  and  _547
REMARK  225  A    between atoms: _550  and  _552
REMARK  226  A    between atoms: _552  and  _553
REMARK  227  A    between atoms: _552  and  _555
REMARK  228  A    between atoms: _555  and  _556
REMARK  229  A    between atoms: _559  and  _561
REMARK  230  A    between atoms: _561  and  _562
REMARK  231  A    between atoms: _564  and  _566
REMARK  232  A    between atoms: _566  and  _567
REMARK  233  A    between atoms: _566  and  _569
REMARK  234  A    between atoms: _569  and  _570
REMARK  235  A    between atoms: _570  and  _571
REMARK  236  A    between atoms: _571  and  _572
REMARK  237  A    between atoms: _581  and  _583
REMARK  238  A    between atoms: _583  and  _584
REMARK  239  A    between atoms: _583  and  _586
REMARK  240  A    between atoms: _586  and  _587
REMARK                            x       y       z     vdW  Elec       q    Type
REMARK                         _______ _______ _______ _____ _____    ______ ____
ROOT
ATOM      1  O   HOH     1      10.305  20.149  17.638  0.00  0.00    +0.000 OA
ENDROOT
TORSDOF 0
REMARK  Name = ../refined-set-2016/3nu4/3nu4_pocket.pdb
REMARK  240 active torsions:
REMARK  status: ('A' for Active; 'I' for Inactive)
REMARK    1  A    between atoms: _1  and  _3
REMARK    2  A    between atoms: _3  and  _4
REMARK    3  A    between atoms: _3  and  _6
REMARK    4  A    between atoms: _6  and  _7
REMARK    5  A    between atoms: _7  and  _8
REMARK    6  A    between atoms: _8  and  _9
REMARK    7  A    between atoms: _18  and  _20
REMARK    8  A    between atoms: _20  and  _21
REMARK    9  A    between atoms: _20  and  _23
REMARK   10  A    between atoms: _23  and  _24
REMARK   11  A    between atoms: _27  and  _29
REMARK   12  A    between atoms: _29  and  _30
REMARK   13  A    between atoms: _29  and  _32
REMARK   14  A    between atoms: _32  and  _33
REMARK   15  A    between atoms: _36  and  _38
REMARK   16  A    between atoms: _38  and  _39
REMARK   17  A    between atoms: _38  and  _41
REMARK   18  A    between atoms: _41  and  _42
REMARK   19  A    between atoms: _45  and  _47
REMARK   20  A    between atoms: _47  and  _48
REMARK   21  A    between atoms: _47  and  _50
REMARK   22  A    between atoms: _50  and  _51
REMARK   23  A    between atoms: _54  and  _56
REMARK   24  A    between atoms: _56  and  _57
REMARK   25  A    between atoms: _59  and  _61
REMARK   26  A    between atoms: _61  and  _62
REMARK   27  A    between atoms: _65  and  _67
REMARK   28  A    between atoms: _67  and  _68
REMARK   29  A    between atoms: _67  and  _70
REMARK   30  A    between atoms: _70  and  _71
REMARK   31  A    between atoms: _74  and  _76
REMARK   32  A    between atoms: _76  and  _77
REMARK   33  A    between atoms: _76  and  _79
REMARK   34  A    between atoms: _79  and  _80
REMARK   35  A    between atoms: _83  and  _85
REMARK   36  A    between atoms: _85  and  _86
REMARK   37  A    between atoms: _85  and  _88
REMARK   38  A    between atoms: _88  and  _89
REMARK   39  A    between atoms: _92  and  _94
REMARK   40  A    between atoms: _94  and  _95
REMARK   41  A    between atoms: _94  and  _97
REMARK   42  A    between atoms: _97  and  _98
REMARK   43  A    between atoms: _101  and  _103
REMARK   44  A    between atoms: _103  and  _104
REMARK   45  A    between atoms: _103  and  _106
REMARK   46  A    between atoms: _106  and  _107
REMARK   47  A    between atoms: _107  and  _108
REMARK   48  A    between atoms: _108  and  _109
REMARK   49  A    between atoms: _109  and  _110
REMARK   50  A    between atoms: _114  and  _116
REMARK   51  A    between atoms: _116  and  _117
REMARK   52  A    between atoms: _116  and  _119
REMARK   53  A    between atoms: _119  and  _120
REMARK   54  A    between atoms: _120  and  _121
REMARK   55  A    between atoms: _123  and  _125
REMARK   56  A    between atoms: _125  and  _126
REMARK   57  A    between atoms: _125  and  _128
REMARK   58  A    between atoms: _128  and  _129
REMARK   59  A    between atoms: _132  and  _134
REMARK   60  A    between atoms: _134  and  _135
REMARK   61  A    between atoms: _137  and  _139
REMARK   62  A    between atoms: _139  and  _140
REMARK   63  A    between atoms: _142  and  _144
REMARK   64  A    between atoms: _144  and  _145
REMARK   65  A    between atoms: _144  and  _147
REMARK   66  A    between atoms: _147  and  _148
REMARK   67  A    between atoms: _151  and  _153
REMARK   68  A    between atoms: _153  and  _154
REMARK   69  A    between atoms: _156  and  _158
REMARK   70  A    between atoms: _158  and  _159
REMARK   71  A    between atoms: _161  and  _163
REMARK   72  A    between atoms: _163  and  _164
REMARK   73  A    between atoms: _163  and  _166
REMARK   74  A    between atoms: _166  and  _167
REMARK   75  A    between atoms: _173  and  _175
REMARK   76  A    between atoms: _175  and  _176
REMARK   77  A    between atoms: _175  and  _178
REMARK   78  A    between atoms: _178  and  _179
REMARK   79  A    between atoms: _182  and  _184
REMARK   80  A    between atoms: _184  and  _185
REMARK   81  A    between atoms: _184  and  _187
REMARK   82  A    between atoms: _190  and  _192
REMARK   83  A    between atoms: _192  and  _193
REMARK   84  A    between atoms: _192  and  _195
REMARK   85  A    between atoms: _195  and  _196
REMARK   86  A    between atoms: _200  and  _201
REMARK   87  A    between atoms: _206  and  _208
REMARK   88  A    between atoms: _208  and  _209
REMARK   89  A    between atoms: _208  and  _211
REMARK   90  A    between atoms: _211  and  _212
REMARK   91  A    between atoms: _216  and  _217
REMARK   92  A    between atoms: _222  and  _224
REMARK   93  A    between atoms: _224  and  _225
REMARK   94  A    between atoms: _224  and  _227
REMARK   95  A    between atoms: _230  and  _232
REMARK   96  A    between atoms: _232  and  _233
REMARK   97  A    between atoms: _232  and  _235
REMARK   98  A    between atoms: _235  and  _236
REMARK   99  A    between atoms: _241  and  _243
REMARK  100  A    between atoms: _243  and  _244
REMARK  101  A    between atoms: _243  and  _246
REMARK  102  A    between atoms: _246  and  _247
REMARK  103  A    between atoms: _250  and  _252
REMARK  104  A    between atoms: _252  and  _253
REMARK  105  A    between atoms: _252  and  _255
REMARK  106  A    between atoms: _255  and  _256
REMARK  107  A    between atoms: _259  and  _261
REMARK  108  A    between atoms: _261  and  _262
REMARK  109  A    between atoms: _264  and  _266
REMARK  110  A    between atoms: _266  and  _267
REMARK  111  A    between atoms: _266  and  _269
REMARK  112  A    between atoms: _269  and  _270
REMARK  113  A    between atoms: _270  and  _271
REMARK  114  A    between atoms: _271  and  _272
REMARK  115  A    between atoms: _281  and  _283
REMARK  116  A    between atoms: _283  and  _284
REMARK  117  A    between atoms: _283  and  _286
REMARK  118  A    between atoms: _286  and  _287
REMARK  119  A    between atoms: _292  and  _294
REMARK  120  A    between atoms: _294  and  _295
REMARK  121  A    between atoms: _294  and  _297
REMARK  122  A    between atoms: _297  and  _298
REMARK  123  A    between atoms: _298  and  _299
REMARK  124  A    between atoms: _299  and  _300
REMARK  125  A    between atoms: _309  and  _311
REMARK  126  A    between atoms: _311  and  _312
REMARK  127  A    between atoms: _311  and  _314
REMARK  128  A    between atoms: _314  and  _315
REMARK  129  A    between atoms: _318  and  _320
REMARK  130  A    between atoms: _320  and  _321
REMARK  131  A    between atoms: _320  and  _323
REMARK  132  A    between atoms: _323  and  _324
REMARK  133  A    between atoms: _327  and  _329
REMARK  134  A    between atoms: _329  and  _330
REMARK  135  A    between atoms: _329  and  _332
REMARK  136  A    between atoms: _332  and  _333
REMARK  137  A    between atoms: _336  and  _338
REMARK  138  A    between atoms: _338  and  _339
REMARK  139  A    between atoms: _338  and  _341
REMARK  140  A    between atoms: _341  and  _342
REMARK  141  A    between atoms: _345  and  _347
REMARK  142  A    between atoms: _347  and  _348
REMARK  143  A    between atoms: _350  and  _352
REMARK  144  A    between atoms: _352  and  _353
REMARK  145  A    between atoms: _356  and  _358
REMARK  146  A    between atoms: _358  and  _359
REMARK  147  A    between atoms: _358  and  _361
REMARK  148  A    between atoms: _361  and  _362
REMARK  149  A    between atoms: _365  and  _367
REMARK  150  A    between atoms: _367  and  _368
REMARK  151  A    between atoms: _367  and  _370
REMARK  152  A    between atoms: _370  and  _371
REMARK  153  A    between atoms: _374  and  _376
REMARK  154  A    between atoms: _376  and  _377
REMARK  155  A    between atoms: _376  and  _379
REMARK  156  A    between atoms: _379  and  _380
REMARK  157  A    between atoms: _383  and  _385
REMARK  158  A    between atoms: _385  and  _386
REMARK  159  A    between atoms: _385  and  _388
REMARK  160  A    between atoms: _388  and  _389
REMARK  161  A    between atoms: _392  and  _394
REMARK  162  A    between atoms: _394  and  _395
REMARK  163  A    between atoms: _394  and  _397
REMARK  164  A    between atoms: _397  and  _398
REMARK  165  A    between atoms: _401  and  _403
REMARK  166  A    between atoms: _403  and  _404
REMARK  167  A    between atoms: _403  and  _406
REMARK  168  A    between atoms: _406  and  _407
REMARK  169  A    between atoms: _407  and  _408
REMARK  170  A    between atoms: _408  and  _409
REMARK  171  A    between atoms: _409  and  _410
REMARK  172  A    between atoms: _414  and  _416
REMARK  173  A    between atoms: _416  and  _417
REMARK  174  A    between atoms: _416  and  _419
REMARK  175  A    between atoms: _419  and  _420
REMARK  176  A    between atoms: _420  and  _421
REMARK  177  A    between atoms: _423  and  _425
REMARK  178  A    between atoms: _425  and  _426
REMARK  179  A    between atoms: _425  and  _428
REMARK  180  A    between atoms: _428  and  _429
REMARK  181  A    between atoms: _432  and  _434
REMARK  182  A    between atoms: _434  and  _435
REMARK  183  A    between atoms: _437  and  _439
REMARK  184  A    between atoms: _439  and  _440
REMARK  185  A    between atoms: _442  and  _444
REMARK  186  A    between atoms: _444  and  _445
REMARK  187  A    between atoms: _444  and  _447
REMARK  188  A    between atoms: _447  and  _448
REMARK  189  A    between atoms: _451  and  _453
REMARK  190  A    between atoms: _453  and  _454
REMARK  191  A    between atoms: _456  and  _458
REMARK  192  A    between atoms: _458  and  _459
REMARK  193  A    between atoms: _461  and  _463
REMARK  194  A    between atoms: _463  and  _464
REMARK  195  A    between atoms: _463  and  _466
REMARK  196  A    between atoms: _466  and  _467
REMARK  197  A    between atoms: _473  and  _475
REMARK  198  A    between atoms: _475  and  _476
REMARK  199  A    between atoms: _475  and  _478
REMARK  200  A    between atoms: _478  and  _479
REMARK  201  A    between atoms: _482  and  _484
REMARK  202  A    between atoms: _484  and  _485
REMARK  203  A    between atoms: _484  and  _487
REMARK  204  A    between atoms: _490  and  _492
REMARK  205  A    between atoms: _492  and  _493
REMARK  206  A    between atoms: _492  and  _495
REMARK  207  A    between atoms: _495  and  _496
REMARK  208  A    between atoms: _500  and  _501
REMARK  209  A    between atoms: _506  and  _508
REMARK  210  A    between atoms: _508  and  _509
REMARK  211  A    between atoms: _508  and  _511
REMARK  212  A    between atoms: _511  and  _512
REMARK  213  A    between atoms: _516  and  _517
REMARK  214  A    between atoms: _522  and  _524
REMARK  215  A    between atoms: _524  and  _525
REMARK  216  A    between atoms: _524  and  _527
REMARK  217  A    between atoms: _530  and  _532
REMARK  218  A    between atoms: _532  and  _533
REMARK  219  A    between atoms: _532  and  _535
REMARK  220  A    between atoms: _535  and  _536
REMARK  221  A    between atoms: _541  and  _543
REMARK  222  A    between atoms: _543  and  _544
REMARK  223  A    between atoms: _543  and  _546
REMARK  224  A    between atoms: _546  and  _547
REMARK  225  A    between atoms: _550  and  _552
REMARK  226  A    between atoms: _552  and  _553
REMARK  227  A    between atoms: _552  and  _555
REMARK  228  A    between atoms: _555  and  _556
REMARK  229  A    between atoms: _559  and  _561
REMARK  230  A    between atoms: _561  and  _562
REMARK  231  A    between atoms: _564  and  _566
REMARK  232  A    between atoms: _566  and  _567
REMARK  233  A    between atoms: _566  and  _569
REMARK  234  A    between atoms: _569  and  _570
REMARK  235  A    between atoms: _570  and  _571
REMARK  236  A    between atoms: _571  and  _572
REMARK  237  A    between atoms: _581  and  _583
REMARK  238  A    between atoms: _583  and  _584
REMARK  239  A    between atoms: _583  and  _586
REMARK  240  A    between atoms: _586  and  _587
REMARK                            x       y       z     vdW  Elec       q    Type
REMARK                         _______ _______ _______ _____ _____    ______ ____
ROOT
ATOM      1  O   HOH     1       9.237  16.075  26.725  0.00  0.00    +0.000 OA
ENDROOT
TORSDOF 0
REMARK  Name = ../refined-set-2016/3nu4/3nu4_pocket.pdb
REMARK  240 active torsions:
REMARK  status: ('A' for Active; 'I' for Inactive)
REMARK    1  A    between atoms: _1  and  _3
REMARK    2  A    between atoms: _3  and  _4
REMARK    3  A    between atoms: _3  and  _6
REMARK    4  A    between atoms: _6  and  _7
REMARK    5  A    between atoms: _7  and  _8
REMARK    6  A    between atoms: _8  and  _9
REMARK    7  A    between atoms: _18  and  _20
REMARK    8  A    between atoms: _20  and  _21
REMARK    9  A    between atoms: _20  and  _23
REMARK   10  A    between atoms: _23  and  _24
REMARK   11  A    between atoms: _27  and  _29
REMARK   12  A    between atoms: _29  and  _30
REMARK   13  A    between atoms: _29  and  _32
REMARK   14  A    between atoms: _32  and  _33
REMARK   15  A    between atoms: _36  and  _38
REMARK   16  A    between atoms: _38  and  _39
REMARK   17  A    between atoms: _38  and  _41
REMARK   18  A    between atoms: _41  and  _42
REMARK   19  A    between atoms: _45  and  _47
REMARK   20  A    between atoms: _47  and  _48
REMARK   21  A    between atoms: _47  and  _50
REMARK   22  A    between atoms: _50  and  _51
REMARK   23  A    between atoms: _54  and  _56
REMARK   24  A    between atoms: _56  and  _57
REMARK   25  A    between atoms: _59  and  _61
REMARK   26  A    between atoms: _61  and  _62
REMARK   27  A    between atoms: _65  and  _67
REMARK   28  A    between atoms: _67  and  _68
REMARK   29  A    between atoms: _67  and  _70
REMARK   30  A    between atoms: _70  and  _71
REMARK   31  A    between atoms: _74  and  _76
REMARK   32  A    between atoms: _76  and  _77
REMARK   33  A    between atoms: _76  and  _79
REMARK   34  A    between atoms: _79  and  _80
REMARK   35  A    between atoms: _83  and  _85
REMARK   36  A    between atoms: _85  and  _86
REMARK   37  A    between atoms: _85  and  _88
REMARK   38  A    between atoms: _88  and  _89
REMARK   39  A    between atoms: _92  and  _94
REMARK   40  A    between atoms: _94  and  _95
REMARK   41  A    between atoms: _94  and  _97
REMARK   42  A    between atoms: _97  and  _98
REMARK   43  A    between atoms: _101  and  _103
REMARK   44  A    between atoms: _103  and  _104
REMARK   45  A    between atoms: _103  and  _106
REMARK   46  A    between atoms: _106  and  _107
REMARK   47  A    between atoms: _107  and  _108
REMARK   48  A    between atoms: _108  and  _109
REMARK   49  A    between atoms: _109  and  _110
REMARK   50  A    between atoms: _114  and  _116
REMARK   51  A    between atoms: _116  and  _117
REMARK   52  A    between atoms: _116  and  _119
REMARK   53  A    between atoms: _119  and  _120
REMARK   54  A    between atoms: _120  and  _121
REMARK   55  A    between atoms: _123  and  _125
REMARK   56  A    between atoms: _125  and  _126
REMARK   57  A    between atoms: _125  and  _128
REMARK   58  A    between atoms: _128  and  _129
REMARK   59  A    between atoms: _132  and  _134
REMARK   60  A    between atoms: _134  and  _135
REMARK   61  A    between atoms: _137  and  _139
REMARK   62  A    between atoms: _139  and  _140
REMARK   63  A    between atoms: _142  and  _144
REMARK   64  A    between atoms: _144  and  _145
REMARK   65  A    between atoms: _144  and  _147
REMARK   66  A    between atoms: _147  and  _148
REMARK   67  A    between atoms: _151  and  _153
REMARK   68  A    between atoms: _153  and  _154
REMARK   69  A    between atoms: _156  and  _158
REMARK   70  A    between atoms: _158  and  _159
REMARK   71  A    between atoms: _161  and  _163
REMARK   72  A    between atoms: _163  and  _164
REMARK   73  A    between atoms: _163  and  _166
REMARK   74  A    between atoms: _166  and  _167
REMARK   75  A    between atoms: _173  and  _175
REMARK   76  A    between atoms: _175  and  _176
REMARK   77  A    between atoms: _175  and  _178
REMARK   78  A    between atoms: _178  and  _179
REMARK   79  A    between atoms: _182  and  _184
REMARK   80  A    between atoms: _184  and  _185
REMARK   81  A    between atoms: _184  and  _187
REMARK   82  A    between atoms: _190  and  _192
REMARK   83  A    between atoms: _192  and  _193
REMARK   84  A    between atoms: _192  and  _195
REMARK   85  A    between atoms: _195  and  _196
REMARK   86  A    between atoms: _200  and  _201
REMARK   87  A    between atoms: _206  and  _208
REMARK   88  A    between atoms: _208  and  _209
REMARK   89  A    between atoms: _208  and  _211
REMARK   90  A    between atoms: _211  and  _212
REMARK   91  A    between atoms: _216  and  _217
REMARK   92  A    between atoms: _222  and  _224
REMARK   93  A    between atoms: _224  and  _225
REMARK   94  A    between atoms: _224  and  _227
REMARK   95  A    between atoms: _230  and  _232
REMARK   96  A    between atoms: _232  and  _233
REMARK   97  A    between atoms: _232  and  _235
REMARK   98  A    between atoms: _235  and  _236
REMARK   99  A    between atoms: _241  and  _243
REMARK  100  A    between atoms: _243  and  _244
REMARK  101  A    between atoms: _243  and  _246
REMARK  102  A    between atoms: _246  and  _247
REMARK  103  A    between atoms: _250  and  _252
REMARK  104  A    between atoms: _252  and  _253
REMARK  105  A    between atoms: _252  and  _255
REMARK  106  A    between atoms: _255  and  _256
REMARK  107  A    between atoms: _259  and  _261
REMARK  108  A    between atoms: _261  and  _262
REMARK  109  A    between atoms: _264  and  _266
REMARK  110  A    between atoms: _266  and  _267
REMARK  111  A    between atoms: _266  and  _269
REMARK  112  A    between atoms: _269  and  _270
REMARK  113  A    between atoms: _270  and  _271
REMARK  114  A    between atoms: _271  and  _272
REMARK  115  A    between atoms: _281  and  _283
REMARK  116  A    between atoms: _283  and  _284
REMARK  117  A    between atoms: _283  and  _286
REMARK  118  A    between atoms: _286  and  _287
REMARK  119  A    between atoms: _292  and  _294
REMARK  120  A    between atoms: _294  and  _295
REMARK  121  A    between atoms: _294  and  _297
REMARK  122  A    between atoms: _297  and  _298
REMARK  123  A    between atoms: _298  and  _299
REMARK  124  A    between atoms: _299  and  _300
REMARK  125  A    between atoms: _309  and  _311
REMARK  126  A    between atoms: _311  and  _312
REMARK  127  A    between atoms: _311  and  _314
REMARK  128  A    between atoms: _314  and  _315
REMARK  129  A    between atoms: _318  and  _320
REMARK  130  A    between atoms: _320  and  _321
REMARK  131  A    between atoms: _320  and  _323
REMARK  132  A    between atoms: _323  and  _324
REMARK  133  A    between atoms: _327  and  _329
REMARK  134  A    between atoms: _329  and  _330
REMARK  135  A    between atoms: _329  and  _332
REMARK  136  A    between atoms: _332  and  _333
REMARK  137  A    between atoms: _336  and  _338
REMARK  138  A    between atoms: _338  and  _339
REMARK  139  A    between atoms: _338  and  _341
REMARK  140  A    between atoms: _341  and  _342
REMARK  141  A    between atoms: _345  and  _347
REMARK  142  A    between atoms: _347  and  _348
REMARK  143  A    between atoms: _350  and  _352
REMARK  144  A    between atoms: _352  and  _353
REMARK  145  A    between atoms: _356  and  _358
REMARK  146  A    between atoms: _358  and  _359
REMARK  147  A    between atoms: _358  and  _361
REMARK  148  A    between atoms: _361  and  _362
REMARK  149  A    between atoms: _365  and  _367
REMARK  150  A    between atoms: _367  and  _368
REMARK  151  A    between atoms: _367  and  _370
REMARK  152  A    between atoms: _370  and  _371
REMARK  153  A    between atoms: _374  and  _376
REMARK  154  A    between atoms: _376  and  _377
REMARK  155  A    between atoms: _376  and  _379
REMARK  156  A    between atoms: _379  and  _380
REMARK  157  A    between atoms: _383  and  _385
REMARK  158  A    between atoms: _385  and  _386
REMARK  159  A    between atoms: _385  and  _388
REMARK  160  A    between atoms: _388  and  _389
REMARK  161  A    between atoms: _392  and  _394
REMARK  162  A    between atoms: _394  and  _395
REMARK  163  A    between atoms: _394  and  _397
REMARK  164  A    between atoms: _397  and  _398
REMARK  165  A    between atoms: _401  and  _403
REMARK  166  A    between atoms: _403  and  _404
REMARK  167  A    between atoms: _403  and  _406
REMARK  168  A    between atoms: _406  and  _407
REMARK  169  A    between atoms: _407  and  _408
REMARK  170  A    between atoms: _408  and  _409
REMARK  171  A    between atoms: _409  and  _410
REMARK  172  A    between atoms: _414  and  _416
REMARK  173  A    between atoms: _416  and  _417
REMARK  174  A    between atoms: _416  and  _419
REMARK  175  A    between atoms: _419  and  _420
REMARK  176  A    between atoms: _420  and  _421
REMARK  177  A    between atoms: _423  and  _425
REMARK  178  A    between atoms: _425  and  _426
REMARK  179  A    between atoms: _425  and  _428
REMARK  180  A    between atoms: _428  and  _429
REMARK  181  A    between atoms: _432  and  _434
REMARK  182  A    between atoms: _434  and  _435
REMARK  183  A    between atoms: _437  and  _439
REMARK  184  A    between atoms: _439  and  _440
REMARK  185  A    between atoms: _442  and  _444
REMARK  186  A    between atoms: _444  and  _445
REMARK  187  A    between atoms: _444  and  _447
REMARK  188  A    between atoms: _447  and  _448
REMARK  189  A    between atoms: _451  and  _453
REMARK  190  A    between atoms: _453  and  _454
REMARK  191  A    between atoms: _456  and  _458
REMARK  192  A    between atoms: _458  and  _459
REMARK  193  A    between atoms: _461  and  _463
REMARK  194  A    between atoms: _463  and  _464
REMARK  195  A    between atoms: _463  and  _466
REMARK  196  A    between atoms: _466  and  _467
REMARK  197  A    between atoms: _473  and  _475
REMARK  198  A    between atoms: _475  and  _476
REMARK  199  A    between atoms: _475  and  _478
REMARK  200  A    between atoms: _478  and  _479
REMARK  201  A    between atoms: _482  and  _484
REMARK  202  A    between atoms: _484  and  _485
REMARK  203  A    between atoms: _484  and  _487
REMARK  204  A    between atoms: _490  and  _492
REMARK  205  A    between atoms: _492  and  _493
REMARK  206  A    between atoms: _492  and  _495
REMARK  207  A    between atoms: _495  and  _496
REMARK  208  A    between atoms: _500  and  _501
REMARK  209  A    between atoms: _506  and  _508
REMARK  210  A    between atoms: _508  and  _509
REMARK  211  A    between atoms: _508  and  _511
REMARK  212  A    between atoms: _511  and  _512
REMARK  213  A    between atoms: _516  and  _517
REMARK  214  A    between atoms: _522  and  _524
REMARK  215  A    between atoms: _524  and  _525
REMARK  216  A    between atoms: _524  and  _527
REMARK  217  A    between atoms: _530  and  _532
REMARK  218  A    between atoms: _532  and  _533
REMARK  219  A    between atoms: _532  and  _535
REMARK  220  A    between atoms: _535  and  _536
REMARK  221  A    between atoms: _541  and  _543
REMARK  222  A    between atoms: _543  and  _544
REMARK  223  A    between atoms: _543  and  _546
REMARK  224  A    between atoms: _546  and  _547
REMARK  225  A    between atoms: _550  and  _552
REMARK  226  A    between atoms: _552  and  _553
REMARK  227  A    between atoms: _552  and  _555
REMARK  228  A    between atoms: _555  and  _556
REMARK  229  A    between atoms: _559  and  _561
REMARK  230  A    between atoms: _561  and  _562
REMARK  231  A    between atoms: _564  and  _566
REMARK  232  A    between atoms: _566  and  _567
REMARK  233  A    between atoms: _566  and  _569
REMARK  234  A    between atoms: _569  and  _570
REMARK  235  A    between atoms: _570  and  _571
REMARK  236  A    between atoms: _571  and  _572
REMARK  237  A    between atoms: _581  and  _583
REMARK  238  A    between atoms: _583  and  _584
REMARK  239  A    between atoms: _583  and  _586
REMARK  240  A    between atoms: _586  and  _587
REMARK                            x       y       z     vdW  Elec       q    Type
REMARK                         _______ _______ _______ _____ _____    ______ ____
ROOT
ATOM      1  O   HOH     1      14.591  16.023  12.036  0.00  0.00    +0.000 OA
ENDROOT
TORSDOF 0
REMARK  Name = ../refined-set-2016/3nu4/3nu4_pocket.pdb
REMARK  240 active torsions:
REMARK  status: ('A' for Active; 'I' for Inactive)
REMARK    1  A    between atoms: _1  and  _3
REMARK    2  A    between atoms: _3  and  _4
REMARK    3  A    between atoms: _3  and  _6
REMARK    4  A    between atoms: _6  and  _7
REMARK    5  A    between atoms: _7  and  _8
REMARK    6  A    between atoms: _8  and  _9
REMARK    7  A    between atoms: _18  and  _20
REMARK    8  A    between atoms: _20  and  _21
REMARK    9  A    between atoms: _20  and  _23
REMARK   10  A    between atoms: _23  and  _24
REMARK   11  A    between atoms: _27  and  _29
REMARK   12  A    between atoms: _29  and  _30
REMARK   13  A    between atoms: _29  and  _32
REMARK   14  A    between atoms: _32  and  _33
REMARK   15  A    between atoms: _36  and  _38
REMARK   16  A    between atoms: _38  and  _39
REMARK   17  A    between atoms: _38  and  _41
REMARK   18  A    between atoms: _41  and  _42
REMARK   19  A    between atoms: _45  and  _47
REMARK   20  A    between atoms: _47  and  _48
REMARK   21  A    between atoms: _47  and  _50
REMARK   22  A    between atoms: _50  and  _51
REMARK   23  A    between atoms: _54  and  _56
REMARK   24  A    between atoms: _56  and  _57
REMARK   25  A    between atoms: _59  and  _61
REMARK   26  A    between atoms: _61  and  _62
REMARK   27  A    between atoms: _65  and  _67
REMARK   28  A    between atoms: _67  and  _68
REMARK   29  A    between atoms: _67  and  _70
REMARK   30  A    between atoms: _70  and  _71
REMARK   31  A    between atoms: _74  and  _76
REMARK   32  A    between atoms: _76  and  _77
REMARK   33  A    between atoms: _76  and  _79
REMARK   34  A    between atoms: _79  and  _80
REMARK   35  A    between atoms: _83  and  _85
REMARK   36  A    between atoms: _85  and  _86
REMARK   37  A    between atoms: _85  and  _88
REMARK   38  A    between atoms: _88  and  _89
REMARK   39  A    between atoms: _92  and  _94
REMARK   40  A    between atoms: _94  and  _95
REMARK   41  A    between atoms: _94  and  _97
REMARK   42  A    between atoms: _97  and  _98
REMARK   43  A    between atoms: _101  and  _103
REMARK   44  A    between atoms: _103  and  _104
REMARK   45  A    between atoms: _103  and  _106
REMARK   46  A    between atoms: _106  and  _107
REMARK   47  A    between atoms: _107  and  _108
REMARK   48  A    between atoms: _108  and  _109
REMARK   49  A    between atoms: _109  and  _110
REMARK   50  A    between atoms: _114  and  _116
REMARK   51  A    between atoms: _116  and  _117
REMARK   52  A    between atoms: _116  and  _119
REMARK   53  A    between atoms: _119  and  _120
REMARK   54  A    between atoms: _120  and  _121
REMARK   55  A    between atoms: _123  and  _125
REMARK   56  A    between atoms: _125  and  _126
REMARK   57  A    between atoms: _125  and  _128
REMARK   58  A    between atoms: _128  and  _129
REMARK   59  A    between atoms: _132  and  _134
REMARK   60  A    between atoms: _134  and  _135
REMARK   61  A    between atoms: _137  and  _139
REMARK   62  A    between atoms: _139  and  _140
REMARK   63  A    between atoms: _142  and  _144
REMARK   64  A    between atoms: _144  and  _145
REMARK   65  A    between atoms: _144  and  _147
REMARK   66  A    between atoms: _147  and  _148
REMARK   67  A    between atoms: _151  and  _153
REMARK   68  A    between atoms: _153  and  _154
REMARK   69  A    between atoms: _156  and  _158
REMARK   70  A    between atoms: _158  and  _159
REMARK   71  A    between atoms: _161  and  _163
REMARK   72  A    between atoms: _163  and  _164
REMARK   73  A    between atoms: _163  and  _166
REMARK   74  A    between atoms: _166  and  _167
REMARK   75  A    between atoms: _173  and  _175
REMARK   76  A    between atoms: _175  and  _176
REMARK   77  A    between atoms: _175  and  _178
REMARK   78  A    between atoms: _178  and  _179
REMARK   79  A    between atoms: _182  and  _184
REMARK   80  A    between atoms: _184  and  _185
REMARK   81  A    between atoms: _184  and  _187
REMARK   82  A    between atoms: _190  and  _192
REMARK   83  A    between atoms: _192  and  _193
REMARK   84  A    between atoms: _192  and  _195
REMARK   85  A    between atoms: _195  and  _196
REMARK   86  A    between atoms: _200  and  _201
REMARK   87  A    between atoms: _206  and  _208
REMARK   88  A    between atoms: _208  and  _209
REMARK   89  A    between atoms: _208  and  _211
REMARK   90  A    between atoms: _211  and  _212
REMARK   91  A    between atoms: _216  and  _217
REMARK   92  A    between atoms: _222  and  _224
REMARK   93  A    between atoms: _224  and  _225
REMARK   94  A    between atoms: _224  and  _227
REMARK   95  A    between atoms: _230  and  _232
REMARK   96  A    between atoms: _232  and  _233
REMARK   97  A    between atoms: _232  and  _235
REMARK   98  A    between atoms: _235  and  _236
REMARK   99  A    between atoms: _241  and  _243
REMARK  100  A    between atoms: _243  and  _244
REMARK  101  A    between atoms: _243  and  _246
REMARK  102  A    between atoms: _246  and  _247
REMARK  103  A    between atoms: _250  and  _252
REMARK  104  A    between atoms: _252  and  _253
REMARK  105  A    between atoms: _252  and  _255
REMARK  106  A    between atoms: _255  and  _256
REMARK  107  A    between atoms: _259  and  _261
REMARK  108  A    between atoms: _261  and  _262
REMARK  109  A    between atoms: _264  and  _266
REMARK  110  A    between atoms: _266  and  _267
REMARK  111  A    between atoms: _266  and  _269
REMARK  112  A    between atoms: _269  and  _270
REMARK  113  A    between atoms: _270  and  _271
REMARK  114  A    between atoms: _271  and  _272
REMARK  115  A    between atoms: _281  and  _283
REMARK  116  A    between atoms: _283  and  _284
REMARK  117  A    between atoms: _283  and  _286
REMARK  118  A    between atoms: _286  and  _287
REMARK  119  A    between atoms: _292  and  _294
REMARK  120  A    between atoms: _294  and  _295
REMARK  121  A    between atoms: _294  and  _297
REMARK  122  A    between atoms: _297  and  _298
REMARK  123  A    between atoms: _298  and  _299
REMARK  124  A    between atoms: _299  and  _300
REMARK  125  A    between atoms: _309  and  _311
REMARK  126  A    between atoms: _311  and  _312
REMARK  127  A    between atoms: _311  and  _314
REMARK  128  A    between atoms: _314  and  _315
REMARK  129  A    between atoms: _318  and  _320
REMARK  130  A    between atoms: _320  and  _321
REMARK  131  A    between atoms: _320  and  _323
REMARK  132  A    between atoms: _323  and  _324
REMARK  133  A    between atoms: _327  and  _329
REMARK  134  A    between atoms: _329  and  _330
REMARK  135  A    between atoms: _329  and  _332
REMARK  136  A    between atoms: _332  and  _333
REMARK  137  A    between atoms: _336  and  _338
REMARK  138  A    between atoms: _338  and  _339
REMARK  139  A    between atoms: _338  and  _341
REMARK  140  A    between atoms: _341  and  _342
REMARK  141  A    between atoms: _345  and  _347
REMARK  142  A    between atoms: _347  and  _348
REMARK  143  A    between atoms: _350  and  _352
REMARK  144  A    between atoms: _352  and  _353
REMARK  145  A    between atoms: _356  and  _358
REMARK  146  A    between atoms: _358  and  _359
REMARK  147  A    between atoms: _358  and  _361
REMARK  148  A    between atoms: _361  and  _362
REMARK  149  A    between atoms: _365  and  _367
REMARK  150  A    between atoms: _367  and  _368
REMARK  151  A    between atoms: _367  and  _370
REMARK  152  A    between atoms: _370  and  _371
REMARK  153  A    between atoms: _374  and  _376
REMARK  154  A    between atoms: _376  and  _377
REMARK  155  A    between atoms: _376  and  _379
REMARK  156  A    between atoms: _379  and  _380
REMARK  157  A    between atoms: _383  and  _385
REMARK  158  A    between atoms: _385  and  _386
REMARK  159  A    between atoms: _385  and  _388
REMARK  160  A    between atoms: _388  and  _389
REMARK  161  A    between atoms: _392  and  _394
REMARK  162  A    between atoms: _394  and  _395
REMARK  163  A    between atoms: _394  and  _397
REMARK  164  A    between atoms: _397  and  _398
REMARK  165  A    between atoms: _401  and  _403
REMARK  166  A    between atoms: _403  and  _404
REMARK  167  A    between atoms: _403  and  _406
REMARK  168  A    between atoms: _406  and  _407
REMARK  169  A    between atoms: _407  and  _408
REMARK  170  A    between atoms: _408  and  _409
REMARK  171  A    between atoms: _409  and  _410
REMARK  172  A    between atoms: _414  and  _416
REMARK  173  A    between atoms: _416  and  _417
REMARK  174  A    between atoms: _416  and  _419
REMARK  175  A    between atoms: _419  and  _420
REMARK  176  A    between atoms: _420  and  _421
REMARK  177  A    between atoms: _423  and  _425
REMARK  178  A    between atoms: _425  and  _426
REMARK  179  A    between atoms: _425  and  _428
REMARK  180  A    between atoms: _428  and  _429
REMARK  181  A    between atoms: _432  and  _434
REMARK  182  A    between atoms: _434  and  _435
REMARK  183  A    between atoms: _437  and  _439
REMARK  184  A    between atoms: _439  and  _440
REMARK  185  A    between atoms: _442  and  _444
REMARK  186  A    between atoms: _444  and  _445
REMARK  187  A    between atoms: _444  and  _447
REMARK  188  A    between atoms: _447  and  _448
REMARK  189  A    between atoms: _451  and  _453
REMARK  190  A    between atoms: _453  and  _454
REMARK  191  A    between atoms: _456  and  _458
REMARK  192  A    between atoms: _458  and  _459
REMARK  193  A    between atoms: _461  and  _463
REMARK  194  A    between atoms: _463  and  _464
REMARK  195  A    between atoms: _463  and  _466
REMARK  196  A    between atoms: _466  and  _467
REMARK  197  A    between atoms: _473  and  _475
REMARK  198  A    between atoms: _475  and  _476
REMARK  199  A    between atoms: _475  and  _478
REMARK  200  A    between atoms: _478  and  _479
REMARK  201  A    between atoms: _482  and  _484
REMARK  202  A    between atoms: _484  and  _485
REMARK  203  A    between atoms: _484  and  _487
REMARK  204  A    between atoms: _490  and  _492
REMARK  205  A    between atoms: _492  and  _493
REMARK  206  A    between atoms: _492  and  _495
REMARK  207  A    between atoms: _495  and  _496
REMARK  208  A    between atoms: _500  and  _501
REMARK  209  A    between atoms: _506  and  _508
REMARK  210  A    between atoms: _508  and  _509
REMARK  211  A    between atoms: _508  and  _511
REMARK  212  A    between atoms: _511  and  _512
REMARK  213  A    between atoms: _516  and  _517
REMARK  214  A    between atoms: _522  and  _524
REMARK  215  A    between atoms: _524  and  _525
REMARK  216  A    between atoms: _524  and  _527
REMARK  217  A    between atoms: _530  and  _532
REMARK  218  A    between atoms: _532  and  _533
REMARK  219  A    between atoms: _532  and  _535
REMARK  220  A    between atoms: _535  and  _536
REMARK  221  A    between atoms: _541  and  _543
REMARK  222  A    between atoms: _543  and  _544
REMARK  223  A    between atoms: _543  and  _546
REMARK  224  A    between atoms: _546  and  _547
REMARK  225  A    between atoms: _550  and  _552
REMARK  226  A    between atoms: _552  and  _553
REMARK  227  A    between atoms: _552  and  _555
REMARK  228  A    between atoms: _555  and  _556
REMARK  229  A    between atoms: _559  and  _561
REMARK  230  A    between atoms: _561  and  _562
REMARK  231  A    between atoms: _564  and  _566
REMARK  232  A    between atoms: _566  and  _567
REMARK  233  A    between atoms: _566  and  _569
REMARK  234  A    between atoms: _569  and  _570
REMARK  235  A    between atoms: _570  and  _571
REMARK  236  A    between atoms: _571  and  _572
REMARK  237  A    between atoms: _581  and  _583
REMARK  238  A    between atoms: _583  and  _584
REMARK  239  A    between atoms: _583  and  _586
REMARK  240  A    between atoms: _586  and  _587
REMARK                            x       y       z     vdW  Elec       q    Type
REMARK                         _______ _______ _______ _____ _____    ______ ____
ROOT
ATOM      1  O   HOH     1       4.564  18.844  22.526  0.00  0.00    +0.000 OA
ENDROOT
TORSDOF 0
REMARK  Name = ../refined-set-2016/3nu4/3nu4_pocket.pdb
REMARK  240 active torsions:
REMARK  status: ('A' for Active; 'I' for Inactive)
REMARK    1  A    between atoms: _1  and  _3
REMARK    2  A    between atoms: _3  and  _4
REMARK    3  A    between atoms: _3  and  _6
REMARK    4  A    between atoms: _6  and  _7
REMARK    5  A    between atoms: _7  and  _8
REMARK    6  A    between atoms: _8  and  _9
REMARK    7  A    between atoms: _18  and  _20
REMARK    8  A    between atoms: _20  and  _21
REMARK    9  A    between atoms: _20  and  _23
REMARK   10  A    between atoms: _23  and  _24
REMARK   11  A    between atoms: _27  and  _29
REMARK   12  A    between atoms: _29  and  _30
REMARK   13  A    between atoms: _29  and  _32
REMARK   14  A    between atoms: _32  and  _33
REMARK   15  A    between atoms: _36  and  _38
REMARK   16  A    between atoms: _38  and  _39
REMARK   17  A    between atoms: _38  and  _41
REMARK   18  A    between atoms: _41  and  _42
REMARK   19  A    between atoms: _45  and  _47
REMARK   20  A    between atoms: _47  and  _48
REMARK   21  A    between atoms: _47  and  _50
REMARK   22  A    between atoms: _50  and  _51
REMARK   23  A    between atoms: _54  and  _56
REMARK   24  A    between atoms: _56  and  _57
REMARK   25  A    between atoms: _59  and  _61
REMARK   26  A    between atoms: _61  and  _62
REMARK   27  A    between atoms: _65  and  _67
REMARK   28  A    between atoms: _67  and  _68
REMARK   29  A    between atoms: _67  and  _70
REMARK   30  A    between atoms: _70  and  _71
REMARK   31  A    between atoms: _74  and  _76
REMARK   32  A    between atoms: _76  and  _77
REMARK   33  A    between atoms: _76  and  _79
REMARK   34  A    between atoms: _79  and  _80
REMARK   35  A    between atoms: _83  and  _85
REMARK   36  A    between atoms: _85  and  _86
REMARK   37  A    between atoms: _85  and  _88
REMARK   38  A    between atoms: _88  and  _89
REMARK   39  A    between atoms: _92  and  _94
REMARK   40  A    between atoms: _94  and  _95
REMARK   41  A    between atoms: _94  and  _97
REMARK   42  A    between atoms: _97  and  _98
REMARK   43  A    between atoms: _101  and  _103
REMARK   44  A    between atoms: _103  and  _104
REMARK   45  A    between atoms: _103  and  _106
REMARK   46  A    between atoms: _106  and  _107
REMARK   47  A    between atoms: _107  and  _108
REMARK   48  A    between atoms: _108  and  _109
REMARK   49  A    between atoms: _109  and  _110
REMARK   50  A    between atoms: _114  and  _116
REMARK   51  A    between atoms: _116  and  _117
REMARK   52  A    between atoms: _116  and  _119
REMARK   53  A    between atoms: _119  and  _120
REMARK   54  A    between atoms: _120  and  _121
REMARK   55  A    between atoms: _123  and  _125
REMARK   56  A    between atoms: _125  and  _126
REMARK   57  A    between atoms: _125  and  _128
REMARK   58  A    between atoms: _128  and  _129
REMARK   59  A    between atoms: _132  and  _134
REMARK   60  A    between atoms: _134  and  _135
REMARK   61  A    between atoms: _137  and  _139
REMARK   62  A    between atoms: _139  and  _140
REMARK   63  A    between atoms: _142  and  _144
REMARK   64  A    between atoms: _144  and  _145
REMARK   65  A    between atoms: _144  and  _147
REMARK   66  A    between atoms: _147  and  _148
REMARK   67  A    between atoms: _151  and  _153
REMARK   68  A    between atoms: _153  and  _154
REMARK   69  A    between atoms: _156  and  _158
REMARK   70  A    between atoms: _158  and  _159
REMARK   71  A    between atoms: _161  and  _163
REMARK   72  A    between atoms: _163  and  _164
REMARK   73  A    between atoms: _163  and  _166
REMARK   74  A    between atoms: _166  and  _167
REMARK   75  A    between atoms: _173  and  _175
REMARK   76  A    between atoms: _175  and  _176
REMARK   77  A    between atoms: _175  and  _178
REMARK   78  A    between atoms: _178  and  _179
REMARK   79  A    between atoms: _182  and  _184
REMARK   80  A    between atoms: _184  and  _185
REMARK   81  A    between atoms: _184  and  _187
REMARK   82  A    between atoms: _190  and  _192
REMARK   83  A    between atoms: _192  and  _193
REMARK   84  A    between atoms: _192  and  _195
REMARK   85  A    between atoms: _195  and  _196
REMARK   86  A    between atoms: _200  and  _201
REMARK   87  A    between atoms: _206  and  _208
REMARK   88  A    between atoms: _208  and  _209
REMARK   89  A    between atoms: _208  and  _211
REMARK   90  A    between atoms: _211  and  _212
REMARK   91  A    between atoms: _216  and  _217
REMARK   92  A    between atoms: _222  and  _224
REMARK   93  A    between atoms: _224  and  _225
REMARK   94  A    between atoms: _224  and  _227
REMARK   95  A    between atoms: _230  and  _232
REMARK   96  A    between atoms: _232  and  _233
REMARK   97  A    between atoms: _232  and  _235
REMARK   98  A    between atoms: _235  and  _236
REMARK   99  A    between atoms: _241  and  _243
REMARK  100  A    between atoms: _243  and  _244
REMARK  101  A    between atoms: _243  and  _246
REMARK  102  A    between atoms: _246  and  _247
REMARK  103  A    between atoms: _250  and  _252
REMARK  104  A    between atoms: _252  and  _253
REMARK  105  A    between atoms: _252  and  _255
REMARK  106  A    between atoms: _255  and  _256
REMARK  107  A    between atoms: _259  and  _261
REMARK  108  A    between atoms: _261  and  _262
REMARK  109  A    between atoms: _264  and  _266
REMARK  110  A    between atoms: _266  and  _267
REMARK  111  A    between atoms: _266  and  _269
REMARK  112  A    between atoms: _269  and  _270
REMARK  113  A    between atoms: _270  and  _271
REMARK  114  A    between atoms: _271  and  _272
REMARK  115  A    between atoms: _281  and  _283
REMARK  116  A    between atoms: _283  and  _284
REMARK  117  A    between atoms: _283  and  _286
REMARK  118  A    between atoms: _286  and  _287
REMARK  119  A    between atoms: _292  and  _294
REMARK  120  A    between atoms: _294  and  _295
REMARK  121  A    between atoms: _294  and  _297
REMARK  122  A    between atoms: _297  and  _298
REMARK  123  A    between atoms: _298  and  _299
REMARK  124  A    between atoms: _299  and  _300
REMARK  125  A    between atoms: _309  and  _311
REMARK  126  A    between atoms: _311  and  _312
REMARK  127  A    between atoms: _311  and  _314
REMARK  128  A    between atoms: _314  and  _315
REMARK  129  A    between atoms: _318  and  _320
REMARK  130  A    between atoms: _320  and  _321
REMARK  131  A    between atoms: _320  and  _323
REMARK  132  A    between atoms: _323  and  _324
REMARK  133  A    between atoms: _327  and  _329
REMARK  134  A    between atoms: _329  and  _330
REMARK  135  A    between atoms: _329  and  _332
REMARK  136  A    between atoms: _332  and  _333
REMARK  137  A    between atoms: _336  and  _338
REMARK  138  A    between atoms: _338  and  _339
REMARK  139  A    between atoms: _338  and  _341
REMARK  140  A    between atoms: _341  and  _342
REMARK  141  A    between atoms: _345  and  _347
REMARK  142  A    between atoms: _347  and  _348
REMARK  143  A    between atoms: _350  and  _352
REMARK  144  A    between atoms: _352  and  _353
REMARK  145  A    between atoms: _356  and  _358
REMARK  146  A    between atoms: _358  and  _359
REMARK  147  A    between atoms: _358  and  _361
REMARK  148  A    between atoms: _361  and  _362
REMARK  149  A    between atoms: _365  and  _367
REMARK  150  A    between atoms: _367  and  _368
REMARK  151  A    between atoms: _367  and  _370
REMARK  152  A    between atoms: _370  and  _371
REMARK  153  A    between atoms: _374  and  _376
REMARK  154  A    between atoms: _376  and  _377
REMARK  155  A    between atoms: _376  and  _379
REMARK  156  A    between atoms: _379  and  _380
REMARK  157  A    between atoms: _383  and  _385
REMARK  158  A    between atoms: _385  and  _386
REMARK  159  A    between atoms: _385  and  _388
REMARK  160  A    between atoms: _388  and  _389
REMARK  161  A    between atoms: _392  and  _394
REMARK  162  A    between atoms: _394  and  _395
REMARK  163  A    between atoms: _394  and  _397
REMARK  164  A    between atoms: _397  and  _398
REMARK  165  A    between atoms: _401  and  _403
REMARK  166  A    between atoms: _403  and  _404
REMARK  167  A    between atoms: _403  and  _406
REMARK  168  A    between atoms: _406  and  _407
REMARK  169  A    between atoms: _407  and  _408
REMARK  170  A    between atoms: _408  and  _409
REMARK  171  A    between atoms: _409  and  _410
REMARK  172  A    between atoms: _414  and  _416
REMARK  173  A    between atoms: _416  and  _417
REMARK  174  A    between atoms: _416  and  _419
REMARK  175  A    between atoms: _419  and  _420
REMARK  176  A    between atoms: _420  and  _421
REMARK  177  A    between atoms: _423  and  _425
REMARK  178  A    between atoms: _425  and  _426
REMARK  179  A    between atoms: _425  and  _428
REMARK  180  A    between atoms: _428  and  _429
REMARK  181  A    between atoms: _432  and  _434
REMARK  182  A    between atoms: _434  and  _435
REMARK  183  A    between atoms: _437  and  _439
REMARK  184  A    between atoms: _439  and  _440
REMARK  185  A    between atoms: _442  and  _444
REMARK  186  A    between atoms: _444  and  _445
REMARK  187  A    between atoms: _444  and  _447
REMARK  188  A    between atoms: _447  and  _448
REMARK  189  A    between atoms: _451  and  _453
REMARK  190  A    between atoms: _453  and  _454
REMARK  191  A    between atoms: _456  and  _458
REMARK  192  A    between atoms: _458  and  _459
REMARK  193  A    between atoms: _461  and  _463
REMARK  194  A    between atoms: _463  and  _464
REMARK  195  A    between atoms: _463  and  _466
REMARK  196  A    between atoms: _466  and  _467
REMARK  197  A    between atoms: _473  and  _475
REMARK  198  A    between atoms: _475  and  _476
REMARK  199  A    between atoms: _475  and  _478
REMARK  200  A    between atoms: _478  and  _479
REMARK  201  A    between atoms: _482  and  _484
REMARK  202  A    between atoms: _484  and  _485
REMARK  203  A    between atoms: _484  and  _487
REMARK  204  A    between atoms: _490  and  _492
REMARK  205  A    between atoms: _492  and  _493
REMARK  206  A    between atoms: _492  and  _495
REMARK  207  A    between atoms: _495  and  _496
REMARK  208  A    between atoms: _500  and  _501
REMARK  209  A    between atoms: _506  and  _508
REMARK  210  A    between atoms: _508  and  _509
REMARK  211  A    between atoms: _508  and  _511
REMARK  212  A    between atoms: _511  and  _512
REMARK  213  A    between atoms: _516  and  _517
REMARK  214  A    between atoms: _522  and  _524
REMARK  215  A    between atoms: _524  and  _525
REMARK  216  A    between atoms: _524  and  _527
REMARK  217  A    between atoms: _530  and  _532
REMARK  218  A    between atoms: _532  and  _533
REMARK  219  A    between atoms: _532  and  _535
REMARK  220  A    between atoms: _535  and  _536
REMARK  221  A    between atoms: _541  and  _543
REMARK  222  A    between atoms: _543  and  _544
REMARK  223  A    between atoms: _543  and  _546
REMARK  224  A    between atoms: _546  and  _547
REMARK  225  A    between atoms: _550  and  _552
REMARK  226  A    between atoms: _552  and  _553
REMARK  227  A    between atoms: _552  and  _555
REMARK  228  A    between atoms: _555  and  _556
REMARK  229  A    between atoms: _559  and  _561
REMARK  230  A    between atoms: _561  and  _562
REMARK  231  A    between atoms: _564  and  _566
REMARK  232  A    between atoms: _566  and  _567
REMARK  233  A    between atoms: _566  and  _569
REMARK  234  A    between atoms: _569  and  _570
REMARK  235  A    between atoms: _570  and  _571
REMARK  236  A    between atoms: _571  and  _572
REMARK  237  A    between atoms: _581  and  _583
REMARK  238  A    between atoms: _583  and  _584
REMARK  239  A    between atoms: _583  and  _586
REMARK  240  A    between atoms: _586  and  _587
REMARK                            x       y       z     vdW  Elec       q    Type
REMARK                         _______ _______ _______ _____ _____    ______ ____
ROOT
ATOM      1  O   HOH     1      22.019  27.328  22.758  0.00  0.00    +0.000 OA
ENDROOT
TORSDOF 0
REMARK  Name = ../refined-set-2016/3nu4/3nu4_pocket.pdb
REMARK  240 active torsions:
REMARK  status: ('A' for Active; 'I' for Inactive)
REMARK    1  A    between atoms: _1  and  _3
REMARK    2  A    between atoms: _3  and  _4
REMARK    3  A    between atoms: _3  and  _6
REMARK    4  A    between atoms: _6  and  _7
REMARK    5  A    between atoms: _7  and  _8
REMARK    6  A    between atoms: _8  and  _9
REMARK    7  A    between atoms: _18  and  _20
REMARK    8  A    between atoms: _20  and  _21
REMARK    9  A    between atoms: _20  and  _23
REMARK   10  A    between atoms: _23  and  _24
REMARK   11  A    between atoms: _27  and  _29
REMARK   12  A    between atoms: _29  and  _30
REMARK   13  A    between atoms: _29  and  _32
REMARK   14  A    between atoms: _32  and  _33
REMARK   15  A    between atoms: _36  and  _38
REMARK   16  A    between atoms: _38  and  _39
REMARK   17  A    between atoms: _38  and  _41
REMARK   18  A    between atoms: _41  and  _42
REMARK   19  A    between atoms: _45  and  _47
REMARK   20  A    between atoms: _47  and  _48
REMARK   21  A    between atoms: _47  and  _50
REMARK   22  A    between atoms: _50  and  _51
REMARK   23  A    between atoms: _54  and  _56
REMARK   24  A    between atoms: _56  and  _57
REMARK   25  A    between atoms: _59  and  _61
REMARK   26  A    between atoms: _61  and  _62
REMARK   27  A    between atoms: _65  and  _67
REMARK   28  A    between atoms: _67  and  _68
REMARK   29  A    between atoms: _67  and  _70
REMARK   30  A    between atoms: _70  and  _71
REMARK   31  A    between atoms: _74  and  _76
REMARK   32  A    between atoms: _76  and  _77
REMARK   33  A    between atoms: _76  and  _79
REMARK   34  A    between atoms: _79  and  _80
REMARK   35  A    between atoms: _83  and  _85
REMARK   36  A    between atoms: _85  and  _86
REMARK   37  A    between atoms: _85  and  _88
REMARK   38  A    between atoms: _88  and  _89
REMARK   39  A    between atoms: _92  and  _94
REMARK   40  A    between atoms: _94  and  _95
REMARK   41  A    between atoms: _94  and  _97
REMARK   42  A    between atoms: _97  and  _98
REMARK   43  A    between atoms: _101  and  _103
REMARK   44  A    between atoms: _103  and  _104
REMARK   45  A    between atoms: _103  and  _106
REMARK   46  A    between atoms: _106  and  _107
REMARK   47  A    between atoms: _107  and  _108
REMARK   48  A    between atoms: _108  and  _109
REMARK   49  A    between atoms: _109  and  _110
REMARK   50  A    between atoms: _114  and  _116
REMARK   51  A    between atoms: _116  and  _117
REMARK   52  A    between atoms: _116  and  _119
REMARK   53  A    between atoms: _119  and  _120
REMARK   54  A    between atoms: _120  and  _121
REMARK   55  A    between atoms: _123  and  _125
REMARK   56  A    between atoms: _125  and  _126
REMARK   57  A    between atoms: _125  and  _128
REMARK   58  A    between atoms: _128  and  _129
REMARK   59  A    between atoms: _132  and  _134
REMARK   60  A    between atoms: _134  and  _135
REMARK   61  A    between atoms: _137  and  _139
REMARK   62  A    between atoms: _139  and  _140
REMARK   63  A    between atoms: _142  and  _144
REMARK   64  A    between atoms: _144  and  _145
REMARK   65  A    between atoms: _144  and  _147
REMARK   66  A    between atoms: _147  and  _148
REMARK   67  A    between atoms: _151  and  _153
REMARK   68  A    between atoms: _153  and  _154
REMARK   69  A    between atoms: _156  and  _158
REMARK   70  A    between atoms: _158  and  _159
REMARK   71  A    between atoms: _161  and  _163
REMARK   72  A    between atoms: _163  and  _164
REMARK   73  A    between atoms: _163  and  _166
REMARK   74  A    between atoms: _166  and  _167
REMARK   75  A    between atoms: _173  and  _175
REMARK   76  A    between atoms: _175  and  _176
REMARK   77  A    between atoms: _175  and  _178
REMARK   78  A    between atoms: _178  and  _179
REMARK   79  A    between atoms: _182  and  _184
REMARK   80  A    between atoms: _184  and  _185
REMARK   81  A    between atoms: _184  and  _187
REMARK   82  A    between atoms: _190  and  _192
REMARK   83  A    between atoms: _192  and  _193
REMARK   84  A    between atoms: _192  and  _195
REMARK   85  A    between atoms: _195  and  _196
REMARK   86  A    between atoms: _200  and  _201
REMARK   87  A    between atoms: _206  and  _208
REMARK   88  A    between atoms: _208  and  _209
REMARK   89  A    between atoms: _208  and  _211
REMARK   90  A    between atoms: _211  and  _212
REMARK   91  A    between atoms: _216  and  _217
REMARK   92  A    between atoms: _222  and  _224
REMARK   93  A    between atoms: _224  and  _225
REMARK   94  A    between atoms: _224  and  _227
REMARK   95  A    between atoms: _230  and  _232
REMARK   96  A    between atoms: _232  and  _233
REMARK   97  A    between atoms: _232  and  _235
REMARK   98  A    between atoms: _235  and  _236
REMARK   99  A    between atoms: _241  and  _243
REMARK  100  A    between atoms: _243  and  _244
REMARK  101  A    between atoms: _243  and  _246
REMARK  102  A    between atoms: _246  and  _247
REMARK  103  A    between atoms: _250  and  _252
REMARK  104  A    between atoms: _252  and  _253
REMARK  105  A    between atoms: _252  and  _255
REMARK  106  A    between atoms: _255  and  _256
REMARK  107  A    between atoms: _259  and  _261
REMARK  108  A    between atoms: _261  and  _262
REMARK  109  A    between atoms: _264  and  _266
REMARK  110  A    between atoms: _266  and  _267
REMARK  111  A    between atoms: _266  and  _269
REMARK  112  A    between atoms: _269  and  _270
REMARK  113  A    between atoms: _270  and  _271
REMARK  114  A    between atoms: _271  and  _272
REMARK  115  A    between atoms: _281  and  _283
REMARK  116  A    between atoms: _283  and  _284
REMARK  117  A    between atoms: _283  and  _286
REMARK  118  A    between atoms: _286  and  _287
REMARK  119  A    between atoms: _292  and  _294
REMARK  120  A    between atoms: _294  and  _295
REMARK  121  A    between atoms: _294  and  _297
REMARK  122  A    between atoms: _297  and  _298
REMARK  123  A    between atoms: _298  and  _299
REMARK  124  A    between atoms: _299  and  _300
REMARK  125  A    between atoms: _309  and  _311
REMARK  126  A    between atoms: _311  and  _312
REMARK  127  A    between atoms: _311  and  _314
REMARK  128  A    between atoms: _314  and  _315
REMARK  129  A    between atoms: _318  and  _320
REMARK  130  A    between atoms: _320  and  _321
REMARK  131  A    between atoms: _320  and  _323
REMARK  132  A    between atoms: _323  and  _324
REMARK  133  A    between atoms: _327  and  _329
REMARK  134  A    between atoms: _329  and  _330
REMARK  135  A    between atoms: _329  and  _332
REMARK  136  A    between atoms: _332  and  _333
REMARK  137  A    between atoms: _336  and  _338
REMARK  138  A    between atoms: _338  and  _339
REMARK  139  A    between atoms: _338  and  _341
REMARK  140  A    between atoms: _341  and  _342
REMARK  141  A    between atoms: _345  and  _347
REMARK  142  A    between atoms: _347  and  _348
REMARK  143  A    between atoms: _350  and  _352
REMARK  144  A    between atoms: _352  and  _353
REMARK  145  A    between atoms: _356  and  _358
REMARK  146  A    between atoms: _358  and  _359
REMARK  147  A    between atoms: _358  and  _361
REMARK  148  A    between atoms: _361  and  _362
REMARK  149  A    between atoms: _365  and  _367
REMARK  150  A    between atoms: _367  and  _368
REMARK  151  A    between atoms: _367  and  _370
REMARK  152  A    between atoms: _370  and  _371
REMARK  153  A    between atoms: _374  and  _376
REMARK  154  A    between atoms: _376  and  _377
REMARK  155  A    between atoms: _376  and  _379
REMARK  156  A    between atoms: _379  and  _380
REMARK  157  A    between atoms: _383  and  _385
REMARK  158  A    between atoms: _385  and  _386
REMARK  159  A    between atoms: _385  and  _388
REMARK  160  A    between atoms: _388  and  _389
REMARK  161  A    between atoms: _392  and  _394
REMARK  162  A    between atoms: _394  and  _395
REMARK  163  A    between atoms: _394  and  _397
REMARK  164  A    between atoms: _397  and  _398
REMARK  165  A    between atoms: _401  and  _403
REMARK  166  A    between atoms: _403  and  _404
REMARK  167  A    between atoms: _403  and  _406
REMARK  168  A    between atoms: _406  and  _407
REMARK  169  A    between atoms: _407  and  _408
REMARK  170  A    between atoms: _408  and  _409
REMARK  171  A    between atoms: _409  and  _410
REMARK  172  A    between atoms: _414  and  _416
REMARK  173  A    between atoms: _416  and  _417
REMARK  174  A    between atoms: _416  and  _419
REMARK  175  A    between atoms: _419  and  _420
REMARK  176  A    between atoms: _420  and  _421
REMARK  177  A    between atoms: _423  and  _425
REMARK  178  A    between atoms: _425  and  _426
REMARK  179  A    between atoms: _425  and  _428
REMARK  180  A    between atoms: _428  and  _429
REMARK  181  A    between atoms: _432  and  _434
REMARK  182  A    between atoms: _434  and  _435
REMARK  183  A    between atoms: _437  and  _439
REMARK  184  A    between atoms: _439  and  _440
REMARK  185  A    between atoms: _442  and  _444
REMARK  186  A    between atoms: _444  and  _445
REMARK  187  A    between atoms: _444  and  _447
REMARK  188  A    between atoms: _447  and  _448
REMARK  189  A    between atoms: _451  and  _453
REMARK  190  A    between atoms: _453  and  _454
REMARK  191  A    between atoms: _456  and  _458
REMARK  192  A    between atoms: _458  and  _459
REMARK  193  A    between atoms: _461  and  _463
REMARK  194  A    between atoms: _463  and  _464
REMARK  195  A    between atoms: _463  and  _466
REMARK  196  A    between atoms: _466  and  _467
REMARK  197  A    between atoms: _473  and  _475
REMARK  198  A    between atoms: _475  and  _476
REMARK  199  A    between atoms: _475  and  _478
REMARK  200  A    between atoms: _478  and  _479
REMARK  201  A    between atoms: _482  and  _484
REMARK  202  A    between atoms: _484  and  _485
REMARK  203  A    between atoms: _484  and  _487
REMARK  204  A    between atoms: _490  and  _492
REMARK  205  A    between atoms: _492  and  _493
REMARK  206  A    between atoms: _492  and  _495
REMARK  207  A    between atoms: _495  and  _496
REMARK  208  A    between atoms: _500  and  _501
REMARK  209  A    between atoms: _506  and  _508
REMARK  210  A    between atoms: _508  and  _509
REMARK  211  A    between atoms: _508  and  _511
REMARK  212  A    between atoms: _511  and  _512
REMARK  213  A    between atoms: _516  and  _517
REMARK  214  A    between atoms: _522  and  _524
REMARK  215  A    between atoms: _524  and  _525
REMARK  216  A    between atoms: _524  and  _527
REMARK  217  A    between atoms: _530  and  _532
REMARK  218  A    between atoms: _532  and  _533
REMARK  219  A    between atoms: _532  and  _535
REMARK  220  A    between atoms: _535  and  _536
REMARK  221  A    between atoms: _541  and  _543
REMARK  222  A    between atoms: _543  and  _544
REMARK  223  A    between atoms: _543  and  _546
REMARK  224  A    between atoms: _546  and  _547
REMARK  225  A    between atoms: _550  and  _552
REMARK  226  A    between atoms: _552  and  _553
REMARK  227  A    between atoms: _552  and  _555
REMARK  228  A    between atoms: _555  and  _556
REMARK  229  A    between atoms: _559  and  _561
REMARK  230  A    between atoms: _561  and  _562
REMARK  231  A    between atoms: _564  and  _566
REMARK  232  A    between atoms: _566  and  _567
REMARK  233  A    between atoms: _566  and  _569
REMARK  234  A    between atoms: _569  and  _570
REMARK  235  A    between atoms: _570  and  _571
REMARK  236  A    between atoms: _571  and  _572
REMARK  237  A    between atoms: _581  and  _583
REMARK  238  A    between atoms: _583  and  _584
REMARK  239  A    between atoms: _583  and  _586
REMARK  240  A    between atoms: _586  and  _587
REMARK                            x       y       z     vdW  Elec       q    Type
REMARK                         _______ _______ _______ _____ _____    ______ ____
ROOT
ATOM      1  O   HOH     1      23.155  27.971  25.945  0.00  0.00    +0.000 OA
ENDROOT
TORSDOF 0
REMARK  Name = ../refined-set-2016/3nu4/3nu4_pocket.pdb
REMARK  240 active torsions:
REMARK  status: ('A' for Active; 'I' for Inactive)
REMARK    1  A    between atoms: _1  and  _3
REMARK    2  A    between atoms: _3  and  _4
REMARK    3  A    between atoms: _3  and  _6
REMARK    4  A    between atoms: _6  and  _7
REMARK    5  A    between atoms: _7  and  _8
REMARK    6  A    between atoms: _8  and  _9
REMARK    7  A    between atoms: _18  and  _20
REMARK    8  A    between atoms: _20  and  _21
REMARK    9  A    between atoms: _20  and  _23
REMARK   10  A    between atoms: _23  and  _24
REMARK   11  A    between atoms: _27  and  _29
REMARK   12  A    between atoms: _29  and  _30
REMARK   13  A    between atoms: _29  and  _32
REMARK   14  A    between atoms: _32  and  _33
REMARK   15  A    between atoms: _36  and  _38
REMARK   16  A    between atoms: _38  and  _39
REMARK   17  A    between atoms: _38  and  _41
REMARK   18  A    between atoms: _41  and  _42
REMARK   19  A    between atoms: _45  and  _47
REMARK   20  A    between atoms: _47  and  _48
REMARK   21  A    between atoms: _47  and  _50
REMARK   22  A    between atoms: _50  and  _51
REMARK   23  A    between atoms: _54  and  _56
REMARK   24  A    between atoms: _56  and  _57
REMARK   25  A    between atoms: _59  and  _61
REMARK   26  A    between atoms: _61  and  _62
REMARK   27  A    between atoms: _65  and  _67
REMARK   28  A    between atoms: _67  and  _68
REMARK   29  A    between atoms: _67  and  _70
REMARK   30  A    between atoms: _70  and  _71
REMARK   31  A    between atoms: _74  and  _76
REMARK   32  A    between atoms: _76  and  _77
REMARK   33  A    between atoms: _76  and  _79
REMARK   34  A    between atoms: _79  and  _80
REMARK   35  A    between atoms: _83  and  _85
REMARK   36  A    between atoms: _85  and  _86
REMARK   37  A    between atoms: _85  and  _88
REMARK   38  A    between atoms: _88  and  _89
REMARK   39  A    between atoms: _92  and  _94
REMARK   40  A    between atoms: _94  and  _95
REMARK   41  A    between atoms: _94  and  _97
REMARK   42  A    between atoms: _97  and  _98
REMARK   43  A    between atoms: _101  and  _103
REMARK   44  A    between atoms: _103  and  _104
REMARK   45  A    between atoms: _103  and  _106
REMARK   46  A    between atoms: _106  and  _107
REMARK   47  A    between atoms: _107  and  _108
REMARK   48  A    between atoms: _108  and  _109
REMARK   49  A    between atoms: _109  and  _110
REMARK   50  A    between atoms: _114  and  _116
REMARK   51  A    between atoms: _116  and  _117
REMARK   52  A    between atoms: _116  and  _119
REMARK   53  A    between atoms: _119  and  _120
REMARK   54  A    between atoms: _120  and  _121
REMARK   55  A    between atoms: _123  and  _125
REMARK   56  A    between atoms: _125  and  _126
REMARK   57  A    between atoms: _125  and  _128
REMARK   58  A    between atoms: _128  and  _129
REMARK   59  A    between atoms: _132  and  _134
REMARK   60  A    between atoms: _134  and  _135
REMARK   61  A    between atoms: _137  and  _139
REMARK   62  A    between atoms: _139  and  _140
REMARK   63  A    between atoms: _142  and  _144
REMARK   64  A    between atoms: _144  and  _145
REMARK   65  A    between atoms: _144  and  _147
REMARK   66  A    between atoms: _147  and  _148
REMARK   67  A    between atoms: _151  and  _153
REMARK   68  A    between atoms: _153  and  _154
REMARK   69  A    between atoms: _156  and  _158
REMARK   70  A    between atoms: _158  and  _159
REMARK   71  A    between atoms: _161  and  _163
REMARK   72  A    between atoms: _163  and  _164
REMARK   73  A    between atoms: _163  and  _166
REMARK   74  A    between atoms: _166  and  _167
REMARK   75  A    between atoms: _173  and  _175
REMARK   76  A    between atoms: _175  and  _176
REMARK   77  A    between atoms: _175  and  _178
REMARK   78  A    between atoms: _178  and  _179
REMARK   79  A    between atoms: _182  and  _184
REMARK   80  A    between atoms: _184  and  _185
REMARK   81  A    between atoms: _184  and  _187
REMARK   82  A    between atoms: _190  and  _192
REMARK   83  A    between atoms: _192  and  _193
REMARK   84  A    between atoms: _192  and  _195
REMARK   85  A    between atoms: _195  and  _196
REMARK   86  A    between atoms: _200  and  _201
REMARK   87  A    between atoms: _206  and  _208
REMARK   88  A    between atoms: _208  and  _209
REMARK   89  A    between atoms: _208  and  _211
REMARK   90  A    between atoms: _211  and  _212
REMARK   91  A    between atoms: _216  and  _217
REMARK   92  A    between atoms: _222  and  _224
REMARK   93  A    between atoms: _224  and  _225
REMARK   94  A    between atoms: _224  and  _227
REMARK   95  A    between atoms: _230  and  _232
REMARK   96  A    between atoms: _232  and  _233
REMARK   97  A    between atoms: _232  and  _235
REMARK   98  A    between atoms: _235  and  _236
REMARK   99  A    between atoms: _241  and  _243
REMARK  100  A    between atoms: _243  and  _244
REMARK  101  A    between atoms: _243  and  _246
REMARK  102  A    between atoms: _246  and  _247
REMARK  103  A    between atoms: _250  and  _252
REMARK  104  A    between atoms: _252  and  _253
REMARK  105  A    between atoms: _252  and  _255
REMARK  106  A    between atoms: _255  and  _256
REMARK  107  A    between atoms: _259  and  _261
REMARK  108  A    between atoms: _261  and  _262
REMARK  109  A    between atoms: _264  and  _266
REMARK  110  A    between atoms: _266  and  _267
REMARK  111  A    between atoms: _266  and  _269
REMARK  112  A    between atoms: _269  and  _270
REMARK  113  A    between atoms: _270  and  _271
REMARK  114  A    between atoms: _271  and  _272
REMARK  115  A    between atoms: _281  and  _283
REMARK  116  A    between atoms: _283  and  _284
REMARK  117  A    between atoms: _283  and  _286
REMARK  118  A    between atoms: _286  and  _287
REMARK  119  A    between atoms: _292  and  _294
REMARK  120  A    between atoms: _294  and  _295
REMARK  121  A    between atoms: _294  and  _297
REMARK  122  A    between atoms: _297  and  _298
REMARK  123  A    between atoms: _298  and  _299
REMARK  124  A    between atoms: _299  and  _300
REMARK  125  A    between atoms: _309  and  _311
REMARK  126  A    between atoms: _311  and  _312
REMARK  127  A    between atoms: _311  and  _314
REMARK  128  A    between atoms: _314  and  _315
REMARK  129  A    between atoms: _318  and  _320
REMARK  130  A    between atoms: _320  and  _321
REMARK  131  A    between atoms: _320  and  _323
REMARK  132  A    between atoms: _323  and  _324
REMARK  133  A    between atoms: _327  and  _329
REMARK  134  A    between atoms: _329  and  _330
REMARK  135  A    between atoms: _329  and  _332
REMARK  136  A    between atoms: _332  and  _333
REMARK  137  A    between atoms: _336  and  _338
REMARK  138  A    between atoms: _338  and  _339
REMARK  139  A    between atoms: _338  and  _341
REMARK  140  A    between atoms: _341  and  _342
REMARK  141  A    between atoms: _345  and  _347
REMARK  142  A    between atoms: _347  and  _348
REMARK  143  A    between atoms: _350  and  _352
REMARK  144  A    between atoms: _352  and  _353
REMARK  145  A    between atoms: _356  and  _358
REMARK  146  A    between atoms: _358  and  _359
REMARK  147  A    between atoms: _358  and  _361
REMARK  148  A    between atoms: _361  and  _362
REMARK  149  A    between atoms: _365  and  _367
REMARK  150  A    between atoms: _367  and  _368
REMARK  151  A    between atoms: _367  and  _370
REMARK  152  A    between atoms: _370  and  _371
REMARK  153  A    between atoms: _374  and  _376
REMARK  154  A    between atoms: _376  and  _377
REMARK  155  A    between atoms: _376  and  _379
REMARK  156  A    between atoms: _379  and  _380
REMARK  157  A    between atoms: _383  and  _385
REMARK  158  A    between atoms: _385  and  _386
REMARK  159  A    between atoms: _385  and  _388
REMARK  160  A    between atoms: _388  and  _389
REMARK  161  A    between atoms: _392  and  _394
REMARK  162  A    between atoms: _394  and  _395
REMARK  163  A    between atoms: _394  and  _397
REMARK  164  A    between atoms: _397  and  _398
REMARK  165  A    between atoms: _401  and  _403
REMARK  166  A    between atoms: _403  and  _404
REMARK  167  A    between atoms: _403  and  _406
REMARK  168  A    between atoms: _406  and  _407
REMARK  169  A    between atoms: _407  and  _408
REMARK  170  A    between atoms: _408  and  _409
REMARK  171  A    between atoms: _409  and  _410
REMARK  172  A    between atoms: _414  and  _416
REMARK  173  A    between atoms: _416  and  _417
REMARK  174  A    between atoms: _416  and  _419
REMARK  175  A    between atoms: _419  and  _420
REMARK  176  A    between atoms: _420  and  _421
REMARK  177  A    between atoms: _423  and  _425
REMARK  178  A    between atoms: _425  and  _426
REMARK  179  A    between atoms: _425  and  _428
REMARK  180  A    between atoms: _428  and  _429
REMARK  181  A    between atoms: _432  and  _434
REMARK  182  A    between atoms: _434  and  _435
REMARK  183  A    between atoms: _437  and  _439
REMARK  184  A    between atoms: _439  and  _440
REMARK  185  A    between atoms: _442  and  _444
REMARK  186  A    between atoms: _444  and  _445
REMARK  187  A    between atoms: _444  and  _447
REMARK  188  A    between atoms: _447  and  _448
REMARK  189  A    between atoms: _451  and  _453
REMARK  190  A    between atoms: _453  and  _454
REMARK  191  A    between atoms: _456  and  _458
REMARK  192  A    between atoms: _458  and  _459
REMARK  193  A    between atoms: _461  and  _463
REMARK  194  A    between atoms: _463  and  _464
REMARK  195  A    between atoms: _463  and  _466
REMARK  196  A    between atoms: _466  and  _467
REMARK  197  A    between atoms: _473  and  _475
REMARK  198  A    between atoms: _475  and  _476
REMARK  199  A    between atoms: _475  and  _478
REMARK  200  A    between atoms: _478  and  _479
REMARK  201  A    between atoms: _482  and  _484
REMARK  202  A    between atoms: _484  and  _485
REMARK  203  A    between atoms: _484  and  _487
REMARK  204  A    between atoms: _490  and  _492
REMARK  205  A    between atoms: _492  and  _493
REMARK  206  A    between atoms: _492  and  _495
REMARK  207  A    between atoms: _495  and  _496
REMARK  208  A    between atoms: _500  and  _501
REMARK  209  A    between atoms: _506  and  _508
REMARK  210  A    between atoms: _508  and  _509
REMARK  211  A    between atoms: _508  and  _511
REMARK  212  A    between atoms: _511  and  _512
REMARK  213  A    between atoms: _516  and  _517
REMARK  214  A    between atoms: _522  and  _524
REMARK  215  A    between atoms: _524  and  _525
REMARK  216  A    between atoms: _524  and  _527
REMARK  217  A    between atoms: _530  and  _532
REMARK  218  A    between atoms: _532  and  _533
REMARK  219  A    between atoms: _532  and  _535
REMARK  220  A    between atoms: _535  and  _536
REMARK  221  A    between atoms: _541  and  _543
REMARK  222  A    between atoms: _543  and  _544
REMARK  223  A    between atoms: _543  and  _546
REMARK  224  A    between atoms: _546  and  _547
REMARK  225  A    between atoms: _550  and  _552
REMARK  226  A    between atoms: _552  and  _553
REMARK  227  A    between atoms: _552  and  _555
REMARK  228  A    between atoms: _555  and  _556
REMARK  229  A    between atoms: _559  and  _561
REMARK  230  A    between atoms: _561  and  _562
REMARK  231  A    between atoms: _564  and  _566
REMARK  232  A    between atoms: _566  and  _567
REMARK  233  A    between atoms: _566  and  _569
REMARK  234  A    between atoms: _569  and  _570
REMARK  235  A    between atoms: _570  and  _571
REMARK  236  A    between atoms: _571  and  _572
REMARK  237  A    between atoms: _581  and  _583
REMARK  238  A    between atoms: _583  and  _584
REMARK  239  A    between atoms: _583  and  _586
REMARK  240  A    between atoms: _586  and  _587
REMARK                            x       y       z     vdW  Elec       q    Type
REMARK                         _______ _______ _______ _____ _____    ______ ____
ROOT
ATOM      1  O   HOH     1      11.218  17.843  16.447  0.00  0.00    +0.000 OA
ENDROOT
TORSDOF 0
REMARK  Name = ../refined-set-2016/3nu4/3nu4_pocket.pdb
REMARK  240 active torsions:
REMARK  status: ('A' for Active; 'I' for Inactive)
REMARK    1  A    between atoms: _1  and  _3
REMARK    2  A    between atoms: _3  and  _4
REMARK    3  A    between atoms: _3  and  _6
REMARK    4  A    between atoms: _6  and  _7
REMARK    5  A    between atoms: _7  and  _8
REMARK    6  A    between atoms: _8  and  _9
REMARK    7  A    between atoms: _18  and  _20
REMARK    8  A    between atoms: _20  and  _21
REMARK    9  A    between atoms: _20  and  _23
REMARK   10  A    between atoms: _23  and  _24
REMARK   11  A    between atoms: _27  and  _29
REMARK   12  A    between atoms: _29  and  _30
REMARK   13  A    between atoms: _29  and  _32
REMARK   14  A    between atoms: _32  and  _33
REMARK   15  A    between atoms: _36  and  _38
REMARK   16  A    between atoms: _38  and  _39
REMARK   17  A    between atoms: _38  and  _41
REMARK   18  A    between atoms: _41  and  _42
REMARK   19  A    between atoms: _45  and  _47
REMARK   20  A    between atoms: _47  and  _48
REMARK   21  A    between atoms: _47  and  _50
REMARK   22  A    between atoms: _50  and  _51
REMARK   23  A    between atoms: _54  and  _56
REMARK   24  A    between atoms: _56  and  _57
REMARK   25  A    between atoms: _59  and  _61
REMARK   26  A    between atoms: _61  and  _62
REMARK   27  A    between atoms: _65  and  _67
REMARK   28  A    between atoms: _67  and  _68
REMARK   29  A    between atoms: _67  and  _70
REMARK   30  A    between atoms: _70  and  _71
REMARK   31  A    between atoms: _74  and  _76
REMARK   32  A    between atoms: _76  and  _77
REMARK   33  A    between atoms: _76  and  _79
REMARK   34  A    between atoms: _79  and  _80
REMARK   35  A    between atoms: _83  and  _85
REMARK   36  A    between atoms: _85  and  _86
REMARK   37  A    between atoms: _85  and  _88
REMARK   38  A    between atoms: _88  and  _89
REMARK   39  A    between atoms: _92  and  _94
REMARK   40  A    between atoms: _94  and  _95
REMARK   41  A    between atoms: _94  and  _97
REMARK   42  A    between atoms: _97  and  _98
REMARK   43  A    between atoms: _101  and  _103
REMARK   44  A    between atoms: _103  and  _104
REMARK   45  A    between atoms: _103  and  _106
REMARK   46  A    between atoms: _106  and  _107
REMARK   47  A    between atoms: _107  and  _108
REMARK   48  A    between atoms: _108  and  _109
REMARK   49  A    between atoms: _109  and  _110
REMARK   50  A    between atoms: _114  and  _116
REMARK   51  A    between atoms: _116  and  _117
REMARK   52  A    between atoms: _116  and  _119
REMARK   53  A    between atoms: _119  and  _120
REMARK   54  A    between atoms: _120  and  _121
REMARK   55  A    between atoms: _123  and  _125
REMARK   56  A    between atoms: _125  and  _126
REMARK   57  A    between atoms: _125  and  _128
REMARK   58  A    between atoms: _128  and  _129
REMARK   59  A    between atoms: _132  and  _134
REMARK   60  A    between atoms: _134  and  _135
REMARK   61  A    between atoms: _137  and  _139
REMARK   62  A    between atoms: _139  and  _140
REMARK   63  A    between atoms: _142  and  _144
REMARK   64  A    between atoms: _144  and  _145
REMARK   65  A    between atoms: _144  and  _147
REMARK   66  A    between atoms: _147  and  _148
REMARK   67  A    between atoms: _151  and  _153
REMARK   68  A    between atoms: _153  and  _154
REMARK   69  A    between atoms: _156  and  _158
REMARK   70  A    between atoms: _158  and  _159
REMARK   71  A    between atoms: _161  and  _163
REMARK   72  A    between atoms: _163  and  _164
REMARK   73  A    between atoms: _163  and  _166
REMARK   74  A    between atoms: _166  and  _167
REMARK   75  A    between atoms: _173  and  _175
REMARK   76  A    between atoms: _175  and  _176
REMARK   77  A    between atoms: _175  and  _178
REMARK   78  A    between atoms: _178  and  _179
REMARK   79  A    between atoms: _182  and  _184
REMARK   80  A    between atoms: _184  and  _185
REMARK   81  A    between atoms: _184  and  _187
REMARK   82  A    between atoms: _190  and  _192
REMARK   83  A    between atoms: _192  and  _193
REMARK   84  A    between atoms: _192  and  _195
REMARK   85  A    between atoms: _195  and  _196
REMARK   86  A    between atoms: _200  and  _201
REMARK   87  A    between atoms: _206  and  _208
REMARK   88  A    between atoms: _208  and  _209
REMARK   89  A    between atoms: _208  and  _211
REMARK   90  A    between atoms: _211  and  _212
REMARK   91  A    between atoms: _216  and  _217
REMARK   92  A    between atoms: _222  and  _224
REMARK   93  A    between atoms: _224  and  _225
REMARK   94  A    between atoms: _224  and  _227
REMARK   95  A    between atoms: _230  and  _232
REMARK   96  A    between atoms: _232  and  _233
REMARK   97  A    between atoms: _232  and  _235
REMARK   98  A    between atoms: _235  and  _236
REMARK   99  A    between atoms: _241  and  _243
REMARK  100  A    between atoms: _243  and  _244
REMARK  101  A    between atoms: _243  and  _246
REMARK  102  A    between atoms: _246  and  _247
REMARK  103  A    between atoms: _250  and  _252
REMARK  104  A    between atoms: _252  and  _253
REMARK  105  A    between atoms: _252  and  _255
REMARK  106  A    between atoms: _255  and  _256
REMARK  107  A    between atoms: _259  and  _261
REMARK  108  A    between atoms: _261  and  _262
REMARK  109  A    between atoms: _264  and  _266
REMARK  110  A    between atoms: _266  and  _267
REMARK  111  A    between atoms: _266  and  _269
REMARK  112  A    between atoms: _269  and  _270
REMARK  113  A    between atoms: _270  and  _271
REMARK  114  A    between atoms: _271  and  _272
REMARK  115  A    between atoms: _281  and  _283
REMARK  116  A    between atoms: _283  and  _284
REMARK  117  A    between atoms: _283  and  _286
REMARK  118  A    between atoms: _286  and  _287
REMARK  119  A    between atoms: _292  and  _294
REMARK  120  A    between atoms: _294  and  _295
REMARK  121  A    between atoms: _294  and  _297
REMARK  122  A    between atoms: _297  and  _298
REMARK  123  A    between atoms: _298  and  _299
REMARK  124  A    between atoms: _299  and  _300
REMARK  125  A    between atoms: _309  and  _311
REMARK  126  A    between atoms: _311  and  _312
REMARK  127  A    between atoms: _311  and  _314
REMARK  128  A    between atoms: _314  and  _315
REMARK  129  A    between atoms: _318  and  _320
REMARK  130  A    between atoms: _320  and  _321
REMARK  131  A    between atoms: _320  and  _323
REMARK  132  A    between atoms: _323  and  _324
REMARK  133  A    between atoms: _327  and  _329
REMARK  134  A    between atoms: _329  and  _330
REMARK  135  A    between atoms: _329  and  _332
REMARK  136  A    between atoms: _332  and  _333
REMARK  137  A    between atoms: _336  and  _338
REMARK  138  A    between atoms: _338  and  _339
REMARK  139  A    between atoms: _338  and  _341
REMARK  140  A    between atoms: _341  and  _342
REMARK  141  A    between atoms: _345  and  _347
REMARK  142  A    between atoms: _347  and  _348
REMARK  143  A    between atoms: _350  and  _352
REMARK  144  A    between atoms: _352  and  _353
REMARK  145  A    between atoms: _356  and  _358
REMARK  146  A    between atoms: _358  and  _359
REMARK  147  A    between atoms: _358  and  _361
REMARK  148  A    between atoms: _361  and  _362
REMARK  149  A    between atoms: _365  and  _367
REMARK  150  A    between atoms: _367  and  _368
REMARK  151  A    between atoms: _367  and  _370
REMARK  152  A    between atoms: _370  and  _371
REMARK  153  A    between atoms: _374  and  _376
REMARK  154  A    between atoms: _376  and  _377
REMARK  155  A    between atoms: _376  and  _379
REMARK  156  A    between atoms: _379  and  _380
REMARK  157  A    between atoms: _383  and  _385
REMARK  158  A    between atoms: _385  and  _386
REMARK  159  A    between atoms: _385  and  _388
REMARK  160  A    between atoms: _388  and  _389
REMARK  161  A    between atoms: _392  and  _394
REMARK  162  A    between atoms: _394  and  _395
REMARK  163  A    between atoms: _394  and  _397
REMARK  164  A    between atoms: _397  and  _398
REMARK  165  A    between atoms: _401  and  _403
REMARK  166  A    between atoms: _403  and  _404
REMARK  167  A    between atoms: _403  and  _406
REMARK  168  A    between atoms: _406  and  _407
REMARK  169  A    between atoms: _407  and  _408
REMARK  170  A    between atoms: _408  and  _409
REMARK  171  A    between atoms: _409  and  _410
REMARK  172  A    between atoms: _414  and  _416
REMARK  173  A    between atoms: _416  and  _417
REMARK  174  A    between atoms: _416  and  _419
REMARK  175  A    between atoms: _419  and  _420
REMARK  176  A    between atoms: _420  and  _421
REMARK  177  A    between atoms: _423  and  _425
REMARK  178  A    between atoms: _425  and  _426
REMARK  179  A    between atoms: _425  and  _428
REMARK  180  A    between atoms: _428  and  _429
REMARK  181  A    between atoms: _432  and  _434
REMARK  182  A    between atoms: _434  and  _435
REMARK  183  A    between atoms: _437  and  _439
REMARK  184  A    between atoms: _439  and  _440
REMARK  185  A    between atoms: _442  and  _444
REMARK  186  A    between atoms: _444  and  _445
REMARK  187  A    between atoms: _444  and  _447
REMARK  188  A    between atoms: _447  and  _448
REMARK  189  A    between atoms: _451  and  _453
REMARK  190  A    between atoms: _453  and  _454
REMARK  191  A    between atoms: _456  and  _458
REMARK  192  A    between atoms: _458  and  _459
REMARK  193  A    between atoms: _461  and  _463
REMARK  194  A    between atoms: _463  and  _464
REMARK  195  A    between atoms: _463  and  _466
REMARK  196  A    between atoms: _466  and  _467
REMARK  197  A    between atoms: _473  and  _475
REMARK  198  A    between atoms: _475  and  _476
REMARK  199  A    between atoms: _475  and  _478
REMARK  200  A    between atoms: _478  and  _479
REMARK  201  A    between atoms: _482  and  _484
REMARK  202  A    between atoms: _484  and  _485
REMARK  203  A    between atoms: _484  and  _487
REMARK  204  A    between atoms: _490  and  _492
REMARK  205  A    between atoms: _492  and  _493
REMARK  206  A    between atoms: _492  and  _495
REMARK  207  A    between atoms: _495  and  _496
REMARK  208  A    between atoms: _500  and  _501
REMARK  209  A    between atoms: _506  and  _508
REMARK  210  A    between atoms: _508  and  _509
REMARK  211  A    between atoms: _508  and  _511
REMARK  212  A    between atoms: _511  and  _512
REMARK  213  A    between atoms: _516  and  _517
REMARK  214  A    between atoms: _522  and  _524
REMARK  215  A    between atoms: _524  and  _525
REMARK  216  A    between atoms: _524  and  _527
REMARK  217  A    between atoms: _530  and  _532
REMARK  218  A    between atoms: _532  and  _533
REMARK  219  A    between atoms: _532  and  _535
REMARK  220  A    between atoms: _535  and  _536
REMARK  221  A    between atoms: _541  and  _543
REMARK  222  A    between atoms: _543  and  _544
REMARK  223  A    between atoms: _543  and  _546
REMARK  224  A    between atoms: _546  and  _547
REMARK  225  A    between atoms: _550  and  _552
REMARK  226  A    between atoms: _552  and  _553
REMARK  227  A    between atoms: _552  and  _555
REMARK  228  A    between atoms: _555  and  _556
REMARK  229  A    between atoms: _559  and  _561
REMARK  230  A    between atoms: _561  and  _562
REMARK  231  A    between atoms: _564  and  _566
REMARK  232  A    between atoms: _566  and  _567
REMARK  233  A    between atoms: _566  and  _569
REMARK  234  A    between atoms: _569  and  _570
REMARK  235  A    between atoms: _570  and  _571
REMARK  236  A    between atoms: _571  and  _572
REMARK  237  A    between atoms: _581  and  _583
REMARK  238  A    between atoms: _583  and  _584
REMARK  239  A    between atoms: _583  and  _586
REMARK  240  A    between atoms: _586  and  _587
REMARK                            x       y       z     vdW  Elec       q    Type
REMARK                         _______ _______ _______ _____ _____    ______ ____
ROOT
ATOM      1  O   HOH     1      15.062  15.138   9.467  0.00  0.00    +0.000 OA
ENDROOT
TORSDOF 0
REMARK  Name = ../refined-set-2016/3nu4/3nu4_pocket.pdb
REMARK  240 active torsions:
REMARK  status: ('A' for Active; 'I' for Inactive)
REMARK    1  A    between atoms: _1  and  _3
REMARK    2  A    between atoms: _3  and  _4
REMARK    3  A    between atoms: _3  and  _6
REMARK    4  A    between atoms: _6  and  _7
REMARK    5  A    between atoms: _7  and  _8
REMARK    6  A    between atoms: _8  and  _9
REMARK    7  A    between atoms: _18  and  _20
REMARK    8  A    between atoms: _20  and  _21
REMARK    9  A    between atoms: _20  and  _23
REMARK   10  A    between atoms: _23  and  _24
REMARK   11  A    between atoms: _27  and  _29
REMARK   12  A    between atoms: _29  and  _30
REMARK   13  A    between atoms: _29  and  _32
REMARK   14  A    between atoms: _32  and  _33
REMARK   15  A    between atoms: _36  and  _38
REMARK   16  A    between atoms: _38  and  _39
REMARK   17  A    between atoms: _38  and  _41
REMARK   18  A    between atoms: _41  and  _42
REMARK   19  A    between atoms: _45  and  _47
REMARK   20  A    between atoms: _47  and  _48
REMARK   21  A    between atoms: _47  and  _50
REMARK   22  A    between atoms: _50  and  _51
REMARK   23  A    between atoms: _54  and  _56
REMARK   24  A    between atoms: _56  and  _57
REMARK   25  A    between atoms: _59  and  _61
REMARK   26  A    between atoms: _61  and  _62
REMARK   27  A    between atoms: _65  and  _67
REMARK   28  A    between atoms: _67  and  _68
REMARK   29  A    between atoms: _67  and  _70
REMARK   30  A    between atoms: _70  and  _71
REMARK   31  A    between atoms: _74  and  _76
REMARK   32  A    between atoms: _76  and  _77
REMARK   33  A    between atoms: _76  and  _79
REMARK   34  A    between atoms: _79  and  _80
REMARK   35  A    between atoms: _83  and  _85
REMARK   36  A    between atoms: _85  and  _86
REMARK   37  A    between atoms: _85  and  _88
REMARK   38  A    between atoms: _88  and  _89
REMARK   39  A    between atoms: _92  and  _94
REMARK   40  A    between atoms: _94  and  _95
REMARK   41  A    between atoms: _94  and  _97
REMARK   42  A    between atoms: _97  and  _98
REMARK   43  A    between atoms: _101  and  _103
REMARK   44  A    between atoms: _103  and  _104
REMARK   45  A    between atoms: _103  and  _106
REMARK   46  A    between atoms: _106  and  _107
REMARK   47  A    between atoms: _107  and  _108
REMARK   48  A    between atoms: _108  and  _109
REMARK   49  A    between atoms: _109  and  _110
REMARK   50  A    between atoms: _114  and  _116
REMARK   51  A    between atoms: _116  and  _117
REMARK   52  A    between atoms: _116  and  _119
REMARK   53  A    between atoms: _119  and  _120
REMARK   54  A    between atoms: _120  and  _121
REMARK   55  A    between atoms: _123  and  _125
REMARK   56  A    between atoms: _125  and  _126
REMARK   57  A    between atoms: _125  and  _128
REMARK   58  A    between atoms: _128  and  _129
REMARK   59  A    between atoms: _132  and  _134
REMARK   60  A    between atoms: _134  and  _135
REMARK   61  A    between atoms: _137  and  _139
REMARK   62  A    between atoms: _139  and  _140
REMARK   63  A    between atoms: _142  and  _144
REMARK   64  A    between atoms: _144  and  _145
REMARK   65  A    between atoms: _144  and  _147
REMARK   66  A    between atoms: _147  and  _148
REMARK   67  A    between atoms: _151  and  _153
REMARK   68  A    between atoms: _153  and  _154
REMARK   69  A    between atoms: _156  and  _158
REMARK   70  A    between atoms: _158  and  _159
REMARK   71  A    between atoms: _161  and  _163
REMARK   72  A    between atoms: _163  and  _164
REMARK   73  A    between atoms: _163  and  _166
REMARK   74  A    between atoms: _166  and  _167
REMARK   75  A    between atoms: _173  and  _175
REMARK   76  A    between atoms: _175  and  _176
REMARK   77  A    between atoms: _175  and  _178
REMARK   78  A    between atoms: _178  and  _179
REMARK   79  A    between atoms: _182  and  _184
REMARK   80  A    between atoms: _184  and  _185
REMARK   81  A    between atoms: _184  and  _187
REMARK   82  A    between atoms: _190  and  _192
REMARK   83  A    between atoms: _192  and  _193
REMARK   84  A    between atoms: _192  and  _195
REMARK   85  A    between atoms: _195  and  _196
REMARK   86  A    between atoms: _200  and  _201
REMARK   87  A    between atoms: _206  and  _208
REMARK   88  A    between atoms: _208  and  _209
REMARK   89  A    between atoms: _208  and  _211
REMARK   90  A    between atoms: _211  and  _212
REMARK   91  A    between atoms: _216  and  _217
REMARK   92  A    between atoms: _222  and  _224
REMARK   93  A    between atoms: _224  and  _225
REMARK   94  A    between atoms: _224  and  _227
REMARK   95  A    between atoms: _230  and  _232
REMARK   96  A    between atoms: _232  and  _233
REMARK   97  A    between atoms: _232  and  _235
REMARK   98  A    between atoms: _235  and  _236
REMARK   99  A    between atoms: _241  and  _243
REMARK  100  A    between atoms: _243  and  _244
REMARK  101  A    between atoms: _243  and  _246
REMARK  102  A    between atoms: _246  and  _247
REMARK  103  A    between atoms: _250  and  _252
REMARK  104  A    between atoms: _252  and  _253
REMARK  105  A    between atoms: _252  and  _255
REMARK  106  A    between atoms: _255  and  _256
REMARK  107  A    between atoms: _259  and  _261
REMARK  108  A    between atoms: _261  and  _262
REMARK  109  A    between atoms: _264  and  _266
REMARK  110  A    between atoms: _266  and  _267
REMARK  111  A    between atoms: _266  and  _269
REMARK  112  A    between atoms: _269  and  _270
REMARK  113  A    between atoms: _270  and  _271
REMARK  114  A    between atoms: _271  and  _272
REMARK  115  A    between atoms: _281  and  _283
REMARK  116  A    between atoms: _283  and  _284
REMARK  117  A    between atoms: _283  and  _286
REMARK  118  A    between atoms: _286  and  _287
REMARK  119  A    between atoms: _292  and  _294
REMARK  120  A    between atoms: _294  and  _295
REMARK  121  A    between atoms: _294  and  _297
REMARK  122  A    between atoms: _297  and  _298
REMARK  123  A    between atoms: _298  and  _299
REMARK  124  A    between atoms: _299  and  _300
REMARK  125  A    between atoms: _309  and  _311
REMARK  126  A    between atoms: _311  and  _312
REMARK  127  A    between atoms: _311  and  _314
REMARK  128  A    between atoms: _314  and  _315
REMARK  129  A    between atoms: _318  and  _320
REMARK  130  A    between atoms: _320  and  _321
REMARK  131  A    between atoms: _320  and  _323
REMARK  132  A    between atoms: _323  and  _324
REMARK  133  A    between atoms: _327  and  _329
REMARK  134  A    between atoms: _329  and  _330
REMARK  135  A    between atoms: _329  and  _332
REMARK  136  A    between atoms: _332  and  _333
REMARK  137  A    between atoms: _336  and  _338
REMARK  138  A    between atoms: _338  and  _339
REMARK  139  A    between atoms: _338  and  _341
REMARK  140  A    between atoms: _341  and  _342
REMARK  141  A    between atoms: _345  and  _347
REMARK  142  A    between atoms: _347  and  _348
REMARK  143  A    between atoms: _350  and  _352
REMARK  144  A    between atoms: _352  and  _353
REMARK  145  A    between atoms: _356  and  _358
REMARK  146  A    between atoms: _358  and  _359
REMARK  147  A    between atoms: _358  and  _361
REMARK  148  A    between atoms: _361  and  _362
REMARK  149  A    between atoms: _365  and  _367
REMARK  150  A    between atoms: _367  and  _368
REMARK  151  A    between atoms: _367  and  _370
REMARK  152  A    between atoms: _370  and  _371
REMARK  153  A    between atoms: _374  and  _376
REMARK  154  A    between atoms: _376  and  _377
REMARK  155  A    between atoms: _376  and  _379
REMARK  156  A    between atoms: _379  and  _380
REMARK  157  A    between atoms: _383  and  _385
REMARK  158  A    between atoms: _385  and  _386
REMARK  159  A    between atoms: _385  and  _388
REMARK  160  A    between atoms: _388  and  _389
REMARK  161  A    between atoms: _392  and  _394
REMARK  162  A    between atoms: _394  and  _395
REMARK  163  A    between atoms: _394  and  _397
REMARK  164  A    between atoms: _397  and  _398
REMARK  165  A    between atoms: _401  and  _403
REMARK  166  A    between atoms: _403  and  _404
REMARK  167  A    between atoms: _403  and  _406
REMARK  168  A    between atoms: _406  and  _407
REMARK  169  A    between atoms: _407  and  _408
REMARK  170  A    between atoms: _408  and  _409
REMARK  171  A    between atoms: _409  and  _410
REMARK  172  A    between atoms: _414  and  _416
REMARK  173  A    between atoms: _416  and  _417
REMARK  174  A    between atoms: _416  and  _419
REMARK  175  A    between atoms: _419  and  _420
REMARK  176  A    between atoms: _420  and  _421
REMARK  177  A    between atoms: _423  and  _425
REMARK  178  A    between atoms: _425  and  _426
REMARK  179  A    between atoms: _425  and  _428
REMARK  180  A    between atoms: _428  and  _429
REMARK  181  A    between atoms: _432  and  _434
REMARK  182  A    between atoms: _434  and  _435
REMARK  183  A    between atoms: _437  and  _439
REMARK  184  A    between atoms: _439  and  _440
REMARK  185  A    between atoms: _442  and  _444
REMARK  186  A    between atoms: _444  and  _445
REMARK  187  A    between atoms: _444  and  _447
REMARK  188  A    between atoms: _447  and  _448
REMARK  189  A    between atoms: _451  and  _453
REMARK  190  A    between atoms: _453  and  _454
REMARK  191  A    between atoms: _456  and  _458
REMARK  192  A    between atoms: _458  and  _459
REMARK  193  A    between atoms: _461  and  _463
REMARK  194  A    between atoms: _463  and  _464
REMARK  195  A    between atoms: _463  and  _466
REMARK  196  A    between atoms: _466  and  _467
REMARK  197  A    between atoms: _473  and  _475
REMARK  198  A    between atoms: _475  and  _476
REMARK  199  A    between atoms: _475  and  _478
REMARK  200  A    between atoms: _478  and  _479
REMARK  201  A    between atoms: _482  and  _484
REMARK  202  A    between atoms: _484  and  _485
REMARK  203  A    between atoms: _484  and  _487
REMARK  204  A    between atoms: _490  and  _492
REMARK  205  A    between atoms: _492  and  _493
REMARK  206  A    between atoms: _492  and  _495
REMARK  207  A    between atoms: _495  and  _496
REMARK  208  A    between atoms: _500  and  _501
REMARK  209  A    between atoms: _506  and  _508
REMARK  210  A    between atoms: _508  and  _509
REMARK  211  A    between atoms: _508  and  _511
REMARK  212  A    between atoms: _511  and  _512
REMARK  213  A    between atoms: _516  and  _517
REMARK  214  A    between atoms: _522  and  _524
REMARK  215  A    between atoms: _524  and  _525
REMARK  216  A    between atoms: _524  and  _527
REMARK  217  A    between atoms: _530  and  _532
REMARK  218  A    between atoms: _532  and  _533
REMARK  219  A    between atoms: _532  and  _535
REMARK  220  A    between atoms: _535  and  _536
REMARK  221  A    between atoms: _541  and  _543
REMARK  222  A    between atoms: _543  and  _544
REMARK  223  A    between atoms: _543  and  _546
REMARK  224  A    between atoms: _546  and  _547
REMARK  225  A    between atoms: _550  and  _552
REMARK  226  A    between atoms: _552  and  _553
REMARK  227  A    between atoms: _552  and  _555
REMARK  228  A    between atoms: _555  and  _556
REMARK  229  A    between atoms: _559  and  _561
REMARK  230  A    between atoms: _561  and  _562
REMARK  231  A    between atoms: _564  and  _566
REMARK  232  A    between atoms: _566  and  _567
REMARK  233  A    between atoms: _566  and  _569
REMARK  234  A    between atoms: _569  and  _570
REMARK  235  A    between atoms: _570  and  _571
REMARK  236  A    between atoms: _571  and  _572
REMARK  237  A    between atoms: _581  and  _583
REMARK  238  A    between atoms: _583  and  _584
REMARK  239  A    between atoms: _583  and  _586
REMARK  240  A    between atoms: _586  and  _587
REMARK                            x       y       z     vdW  Elec       q    Type
REMARK                         _______ _______ _______ _____ _____    ______ ____
ROOT
ATOM      1  O   HOH     1      18.954  17.836   8.420  0.00  0.00    +0.000 OA
ENDROOT
TORSDOF 0
REMARK  Name = ../refined-set-2016/3nu4/3nu4_pocket.pdb
REMARK  240 active torsions:
REMARK  status: ('A' for Active; 'I' for Inactive)
REMARK    1  A    between atoms: _1  and  _3
REMARK    2  A    between atoms: _3  and  _4
REMARK    3  A    between atoms: _3  and  _6
REMARK    4  A    between atoms: _6  and  _7
REMARK    5  A    between atoms: _7  and  _8
REMARK    6  A    between atoms: _8  and  _9
REMARK    7  A    between atoms: _18  and  _20
REMARK    8  A    between atoms: _20  and  _21
REMARK    9  A    between atoms: _20  and  _23
REMARK   10  A    between atoms: _23  and  _24
REMARK   11  A    between atoms: _27  and  _29
REMARK   12  A    between atoms: _29  and  _30
REMARK   13  A    between atoms: _29  and  _32
REMARK   14  A    between atoms: _32  and  _33
REMARK   15  A    between atoms: _36  and  _38
REMARK   16  A    between atoms: _38  and  _39
REMARK   17  A    between atoms: _38  and  _41
REMARK   18  A    between atoms: _41  and  _42
REMARK   19  A    between atoms: _45  and  _47
REMARK   20  A    between atoms: _47  and  _48
REMARK   21  A    between atoms: _47  and  _50
REMARK   22  A    between atoms: _50  and  _51
REMARK   23  A    between atoms: _54  and  _56
REMARK   24  A    between atoms: _56  and  _57
REMARK   25  A    between atoms: _59  and  _61
REMARK   26  A    between atoms: _61  and  _62
REMARK   27  A    between atoms: _65  and  _67
REMARK   28  A    between atoms: _67  and  _68
REMARK   29  A    between atoms: _67  and  _70
REMARK   30  A    between atoms: _70  and  _71
REMARK   31  A    between atoms: _74  and  _76
REMARK   32  A    between atoms: _76  and  _77
REMARK   33  A    between atoms: _76  and  _79
REMARK   34  A    between atoms: _79  and  _80
REMARK   35  A    between atoms: _83  and  _85
REMARK   36  A    between atoms: _85  and  _86
REMARK   37  A    between atoms: _85  and  _88
REMARK   38  A    between atoms: _88  and  _89
REMARK   39  A    between atoms: _92  and  _94
REMARK   40  A    between atoms: _94  and  _95
REMARK   41  A    between atoms: _94  and  _97
REMARK   42  A    between atoms: _97  and  _98
REMARK   43  A    between atoms: _101  and  _103
REMARK   44  A    between atoms: _103  and  _104
REMARK   45  A    between atoms: _103  and  _106
REMARK   46  A    between atoms: _106  and  _107
REMARK   47  A    between atoms: _107  and  _108
REMARK   48  A    between atoms: _108  and  _109
REMARK   49  A    between atoms: _109  and  _110
REMARK   50  A    between atoms: _114  and  _116
REMARK   51  A    between atoms: _116  and  _117
REMARK   52  A    between atoms: _116  and  _119
REMARK   53  A    between atoms: _119  and  _120
REMARK   54  A    between atoms: _120  and  _121
REMARK   55  A    between atoms: _123  and  _125
REMARK   56  A    between atoms: _125  and  _126
REMARK   57  A    between atoms: _125  and  _128
REMARK   58  A    between atoms: _128  and  _129
REMARK   59  A    between atoms: _132  and  _134
REMARK   60  A    between atoms: _134  and  _135
REMARK   61  A    between atoms: _137  and  _139
REMARK   62  A    between atoms: _139  and  _140
REMARK   63  A    between atoms: _142  and  _144
REMARK   64  A    between atoms: _144  and  _145
REMARK   65  A    between atoms: _144  and  _147
REMARK   66  A    between atoms: _147  and  _148
REMARK   67  A    between atoms: _151  and  _153
REMARK   68  A    between atoms: _153  and  _154
REMARK   69  A    between atoms: _156  and  _158
REMARK   70  A    between atoms: _158  and  _159
REMARK   71  A    between atoms: _161  and  _163
REMARK   72  A    between atoms: _163  and  _164
REMARK   73  A    between atoms: _163  and  _166
REMARK   74  A    between atoms: _166  and  _167
REMARK   75  A    between atoms: _173  and  _175
REMARK   76  A    between atoms: _175  and  _176
REMARK   77  A    between atoms: _175  and  _178
REMARK   78  A    between atoms: _178  and  _179
REMARK   79  A    between atoms: _182  and  _184
REMARK   80  A    between atoms: _184  and  _185
REMARK   81  A    between atoms: _184  and  _187
REMARK   82  A    between atoms: _190  and  _192
REMARK   83  A    between atoms: _192  and  _193
REMARK   84  A    between atoms: _192  and  _195
REMARK   85  A    between atoms: _195  and  _196
REMARK   86  A    between atoms: _200  and  _201
REMARK   87  A    between atoms: _206  and  _208
REMARK   88  A    between atoms: _208  and  _209
REMARK   89  A    between atoms: _208  and  _211
REMARK   90  A    between atoms: _211  and  _212
REMARK   91  A    between atoms: _216  and  _217
REMARK   92  A    between atoms: _222  and  _224
REMARK   93  A    between atoms: _224  and  _225
REMARK   94  A    between atoms: _224  and  _227
REMARK   95  A    between atoms: _230  and  _232
REMARK   96  A    between atoms: _232  and  _233
REMARK   97  A    between atoms: _232  and  _235
REMARK   98  A    between atoms: _235  and  _236
REMARK   99  A    between atoms: _241  and  _243
REMARK  100  A    between atoms: _243  and  _244
REMARK  101  A    between atoms: _243  and  _246
REMARK  102  A    between atoms: _246  and  _247
REMARK  103  A    between atoms: _250  and  _252
REMARK  104  A    between atoms: _252  and  _253
REMARK  105  A    between atoms: _252  and  _255
REMARK  106  A    between atoms: _255  and  _256
REMARK  107  A    between atoms: _259  and  _261
REMARK  108  A    between atoms: _261  and  _262
REMARK  109  A    between atoms: _264  and  _266
REMARK  110  A    between atoms: _266  and  _267
REMARK  111  A    between atoms: _266  and  _269
REMARK  112  A    between atoms: _269  and  _270
REMARK  113  A    between atoms: _270  and  _271
REMARK  114  A    between atoms: _271  and  _272
REMARK  115  A    between atoms: _281  and  _283
REMARK  116  A    between atoms: _283  and  _284
REMARK  117  A    between atoms: _283  and  _286
REMARK  118  A    between atoms: _286  and  _287
REMARK  119  A    between atoms: _292  and  _294
REMARK  120  A    between atoms: _294  and  _295
REMARK  121  A    between atoms: _294  and  _297
REMARK  122  A    between atoms: _297  and  _298
REMARK  123  A    between atoms: _298  and  _299
REMARK  124  A    between atoms: _299  and  _300
REMARK  125  A    between atoms: _309  and  _311
REMARK  126  A    between atoms: _311  and  _312
REMARK  127  A    between atoms: _311  and  _314
REMARK  128  A    between atoms: _314  and  _315
REMARK  129  A    between atoms: _318  and  _320
REMARK  130  A    between atoms: _320  and  _321
REMARK  131  A    between atoms: _320  and  _323
REMARK  132  A    between atoms: _323  and  _324
REMARK  133  A    between atoms: _327  and  _329
REMARK  134  A    between atoms: _329  and  _330
REMARK  135  A    between atoms: _329  and  _332
REMARK  136  A    between atoms: _332  and  _333
REMARK  137  A    between atoms: _336  and  _338
REMARK  138  A    between atoms: _338  and  _339
REMARK  139  A    between atoms: _338  and  _341
REMARK  140  A    between atoms: _341  and  _342
REMARK  141  A    between atoms: _345  and  _347
REMARK  142  A    between atoms: _347  and  _348
REMARK  143  A    between atoms: _350  and  _352
REMARK  144  A    between atoms: _352  and  _353
REMARK  145  A    between atoms: _356  and  _358
REMARK  146  A    between atoms: _358  and  _359
REMARK  147  A    between atoms: _358  and  _361
REMARK  148  A    between atoms: _361  and  _362
REMARK  149  A    between atoms: _365  and  _367
REMARK  150  A    between atoms: _367  and  _368
REMARK  151  A    between atoms: _367  and  _370
REMARK  152  A    between atoms: _370  and  _371
REMARK  153  A    between atoms: _374  and  _376
REMARK  154  A    between atoms: _376  and  _377
REMARK  155  A    between atoms: _376  and  _379
REMARK  156  A    between atoms: _379  and  _380
REMARK  157  A    between atoms: _383  and  _385
REMARK  158  A    between atoms: _385  and  _386
REMARK  159  A    between atoms: _385  and  _388
REMARK  160  A    between atoms: _388  and  _389
REMARK  161  A    between atoms: _392  and  _394
REMARK  162  A    between atoms: _394  and  _395
REMARK  163  A    between atoms: _394  and  _397
REMARK  164  A    between atoms: _397  and  _398
REMARK  165  A    between atoms: _401  and  _403
REMARK  166  A    between atoms: _403  and  _404
REMARK  167  A    between atoms: _403  and  _406
REMARK  168  A    between atoms: _406  and  _407
REMARK  169  A    between atoms: _407  and  _408
REMARK  170  A    between atoms: _408  and  _409
REMARK  171  A    between atoms: _409  and  _410
REMARK  172  A    between atoms: _414  and  _416
REMARK  173  A    between atoms: _416  and  _417
REMARK  174  A    between atoms: _416  and  _419
REMARK  175  A    between atoms: _419  and  _420
REMARK  176  A    between atoms: _420  and  _421
REMARK  177  A    between atoms: _423  and  _425
REMARK  178  A    between atoms: _425  and  _426
REMARK  179  A    between atoms: _425  and  _428
REMARK  180  A    between atoms: _428  and  _429
REMARK  181  A    between atoms: _432  and  _434
REMARK  182  A    between atoms: _434  and  _435
REMARK  183  A    between atoms: _437  and  _439
REMARK  184  A    between atoms: _439  and  _440
REMARK  185  A    between atoms: _442  and  _444
REMARK  186  A    between atoms: _444  and  _445
REMARK  187  A    between atoms: _444  and  _447
REMARK  188  A    between atoms: _447  and  _448
REMARK  189  A    between atoms: _451  and  _453
REMARK  190  A    between atoms: _453  and  _454
REMARK  191  A    between atoms: _456  and  _458
REMARK  192  A    between atoms: _458  and  _459
REMARK  193  A    between atoms: _461  and  _463
REMARK  194  A    between atoms: _463  and  _464
REMARK  195  A    between atoms: _463  and  _466
REMARK  196  A    between atoms: _466  and  _467
REMARK  197  A    between atoms: _473  and  _475
REMARK  198  A    between atoms: _475  and  _476
REMARK  199  A    between atoms: _475  and  _478
REMARK  200  A    between atoms: _478  and  _479
REMARK  201  A    between atoms: _482  and  _484
REMARK  202  A    between atoms: _484  and  _485
REMARK  203  A    between atoms: _484  and  _487
REMARK  204  A    between atoms: _490  and  _492
REMARK  205  A    between atoms: _492  and  _493
REMARK  206  A    between atoms: _492  and  _495
REMARK  207  A    between atoms: _495  and  _496
REMARK  208  A    between atoms: _500  and  _501
REMARK  209  A    between atoms: _506  and  _508
REMARK  210  A    between atoms: _508  and  _509
REMARK  211  A    between atoms: _508  and  _511
REMARK  212  A    between atoms: _511  and  _512
REMARK  213  A    between atoms: _516  and  _517
REMARK  214  A    between atoms: _522  and  _524
REMARK  215  A    between atoms: _524  and  _525
REMARK  216  A    between atoms: _524  and  _527
REMARK  217  A    between atoms: _530  and  _532
REMARK  218  A    between atoms: _532  and  _533
REMARK  219  A    between atoms: _532  and  _535
REMARK  220  A    between atoms: _535  and  _536
REMARK  221  A    between atoms: _541  and  _543
REMARK  222  A    between atoms: _543  and  _544
REMARK  223  A    between atoms: _543  and  _546
REMARK  224  A    between atoms: _546  and  _547
REMARK  225  A    between atoms: _550  and  _552
REMARK  226  A    between atoms: _552  and  _553
REMARK  227  A    between atoms: _552  and  _555
REMARK  228  A    between atoms: _555  and  _556
REMARK  229  A    between atoms: _559  and  _561
REMARK  230  A    between atoms: _561  and  _562
REMARK  231  A    between atoms: _564  and  _566
REMARK  232  A    between atoms: _566  and  _567
REMARK  233  A    between atoms: _566  and  _569
REMARK  234  A    between atoms: _569  and  _570
REMARK  235  A    between atoms: _570  and  _571
REMARK  236  A    between atoms: _571  and  _572
REMARK  237  A    between atoms: _581  and  _583
REMARK  238  A    between atoms: _583  and  _584
REMARK  239  A    between atoms: _583  and  _586
REMARK  240  A    between atoms: _586  and  _587
REMARK                            x       y       z     vdW  Elec       q    Type
REMARK                         _______ _______ _______ _____ _____    ______ ____
ROOT
ATOM      1  O   HOH     1      12.019  16.854  11.834  0.00  0.00    +0.000 OA
ENDROOT
TORSDOF 0
REMARK  Name = ../refined-set-2016/3nu4/3nu4_pocket.pdb
REMARK  240 active torsions:
REMARK  status: ('A' for Active; 'I' for Inactive)
REMARK    1  A    between atoms: _1  and  _3
REMARK    2  A    between atoms: _3  and  _4
REMARK    3  A    between atoms: _3  and  _6
REMARK    4  A    between atoms: _6  and  _7
REMARK    5  A    between atoms: _7  and  _8
REMARK    6  A    between atoms: _8  and  _9
REMARK    7  A    between atoms: _18  and  _20
REMARK    8  A    between atoms: _20  and  _21
REMARK    9  A    between atoms: _20  and  _23
REMARK   10  A    between atoms: _23  and  _24
REMARK   11  A    between atoms: _27  and  _29
REMARK   12  A    between atoms: _29  and  _30
REMARK   13  A    between atoms: _29  and  _32
REMARK   14  A    between atoms: _32  and  _33
REMARK   15  A    between atoms: _36  and  _38
REMARK   16  A    between atoms: _38  and  _39
REMARK   17  A    between atoms: _38  and  _41
REMARK   18  A    between atoms: _41  and  _42
REMARK   19  A    between atoms: _45  and  _47
REMARK   20  A    between atoms: _47  and  _48
REMARK   21  A    between atoms: _47  and  _50
REMARK   22  A    between atoms: _50  and  _51
REMARK   23  A    between atoms: _54  and  _56
REMARK   24  A    between atoms: _56  and  _57
REMARK   25  A    between atoms: _59  and  _61
REMARK   26  A    between atoms: _61  and  _62
REMARK   27  A    between atoms: _65  and  _67
REMARK   28  A    between atoms: _67  and  _68
REMARK   29  A    between atoms: _67  and  _70
REMARK   30  A    between atoms: _70  and  _71
REMARK   31  A    between atoms: _74  and  _76
REMARK   32  A    between atoms: _76  and  _77
REMARK   33  A    between atoms: _76  and  _79
REMARK   34  A    between atoms: _79  and  _80
REMARK   35  A    between atoms: _83  and  _85
REMARK   36  A    between atoms: _85  and  _86
REMARK   37  A    between atoms: _85  and  _88
REMARK   38  A    between atoms: _88  and  _89
REMARK   39  A    between atoms: _92  and  _94
REMARK   40  A    between atoms: _94  and  _95
REMARK   41  A    between atoms: _94  and  _97
REMARK   42  A    between atoms: _97  and  _98
REMARK   43  A    between atoms: _101  and  _103
REMARK   44  A    between atoms: _103  and  _104
REMARK   45  A    between atoms: _103  and  _106
REMARK   46  A    between atoms: _106  and  _107
REMARK   47  A    between atoms: _107  and  _108
REMARK   48  A    between atoms: _108  and  _109
REMARK   49  A    between atoms: _109  and  _110
REMARK   50  A    between atoms: _114  and  _116
REMARK   51  A    between atoms: _116  and  _117
REMARK   52  A    between atoms: _116  and  _119
REMARK   53  A    between atoms: _119  and  _120
REMARK   54  A    between atoms: _120  and  _121
REMARK   55  A    between atoms: _123  and  _125
REMARK   56  A    between atoms: _125  and  _126
REMARK   57  A    between atoms: _125  and  _128
REMARK   58  A    between atoms: _128  and  _129
REMARK   59  A    between atoms: _132  and  _134
REMARK   60  A    between atoms: _134  and  _135
REMARK   61  A    between atoms: _137  and  _139
REMARK   62  A    between atoms: _139  and  _140
REMARK   63  A    between atoms: _142  and  _144
REMARK   64  A    between atoms: _144  and  _145
REMARK   65  A    between atoms: _144  and  _147
REMARK   66  A    between atoms: _147  and  _148
REMARK   67  A    between atoms: _151  and  _153
REMARK   68  A    between atoms: _153  and  _154
REMARK   69  A    between atoms: _156  and  _158
REMARK   70  A    between atoms: _158  and  _159
REMARK   71  A    between atoms: _161  and  _163
REMARK   72  A    between atoms: _163  and  _164
REMARK   73  A    between atoms: _163  and  _166
REMARK   74  A    between atoms: _166  and  _167
REMARK   75  A    between atoms: _173  and  _175
REMARK   76  A    between atoms: _175  and  _176
REMARK   77  A    between atoms: _175  and  _178
REMARK   78  A    between atoms: _178  and  _179
REMARK   79  A    between atoms: _182  and  _184
REMARK   80  A    between atoms: _184  and  _185
REMARK   81  A    between atoms: _184  and  _187
REMARK   82  A    between atoms: _190  and  _192
REMARK   83  A    between atoms: _192  and  _193
REMARK   84  A    between atoms: _192  and  _195
REMARK   85  A    between atoms: _195  and  _196
REMARK   86  A    between atoms: _200  and  _201
REMARK   87  A    between atoms: _206  and  _208
REMARK   88  A    between atoms: _208  and  _209
REMARK   89  A    between atoms: _208  and  _211
REMARK   90  A    between atoms: _211  and  _212
REMARK   91  A    between atoms: _216  and  _217
REMARK   92  A    between atoms: _222  and  _224
REMARK   93  A    between atoms: _224  and  _225
REMARK   94  A    between atoms: _224  and  _227
REMARK   95  A    between atoms: _230  and  _232
REMARK   96  A    between atoms: _232  and  _233
REMARK   97  A    between atoms: _232  and  _235
REMARK   98  A    between atoms: _235  and  _236
REMARK   99  A    between atoms: _241  and  _243
REMARK  100  A    between atoms: _243  and  _244
REMARK  101  A    between atoms: _243  and  _246
REMARK  102  A    between atoms: _246  and  _247
REMARK  103  A    between atoms: _250  and  _252
REMARK  104  A    between atoms: _252  and  _253
REMARK  105  A    between atoms: _252  and  _255
REMARK  106  A    between atoms: _255  and  _256
REMARK  107  A    between atoms: _259  and  _261
REMARK  108  A    between atoms: _261  and  _262
REMARK  109  A    between atoms: _264  and  _266
REMARK  110  A    between atoms: _266  and  _267
REMARK  111  A    between atoms: _266  and  _269
REMARK  112  A    between atoms: _269  and  _270
REMARK  113  A    between atoms: _270  and  _271
REMARK  114  A    between atoms: _271  and  _272
REMARK  115  A    between atoms: _281  and  _283
REMARK  116  A    between atoms: _283  and  _284
REMARK  117  A    between atoms: _283  and  _286
REMARK  118  A    between atoms: _286  and  _287
REMARK  119  A    between atoms: _292  and  _294
REMARK  120  A    between atoms: _294  and  _295
REMARK  121  A    between atoms: _294  and  _297
REMARK  122  A    between atoms: _297  and  _298
REMARK  123  A    between atoms: _298  and  _299
REMARK  124  A    between atoms: _299  and  _300
REMARK  125  A    between atoms: _309  and  _311
REMARK  126  A    between atoms: _311  and  _312
REMARK  127  A    between atoms: _311  and  _314
REMARK  128  A    between atoms: _314  and  _315
REMARK  129  A    between atoms: _318  and  _320
REMARK  130  A    between atoms: _320  and  _321
REMARK  131  A    between atoms: _320  and  _323
REMARK  132  A    between atoms: _323  and  _324
REMARK  133  A    between atoms: _327  and  _329
REMARK  134  A    between atoms: _329  and  _330
REMARK  135  A    between atoms: _329  and  _332
REMARK  136  A    between atoms: _332  and  _333
REMARK  137  A    between atoms: _336  and  _338
REMARK  138  A    between atoms: _338  and  _339
REMARK  139  A    between atoms: _338  and  _341
REMARK  140  A    between atoms: _341  and  _342
REMARK  141  A    between atoms: _345  and  _347
REMARK  142  A    between atoms: _347  and  _348
REMARK  143  A    between atoms: _350  and  _352
REMARK  144  A    between atoms: _352  and  _353
REMARK  145  A    between atoms: _356  and  _358
REMARK  146  A    between atoms: _358  and  _359
REMARK  147  A    between atoms: _358  and  _361
REMARK  148  A    between atoms: _361  and  _362
REMARK  149  A    between atoms: _365  and  _367
REMARK  150  A    between atoms: _367  and  _368
REMARK  151  A    between atoms: _367  and  _370
REMARK  152  A    between atoms: _370  and  _371
REMARK  153  A    between atoms: _374  and  _376
REMARK  154  A    between atoms: _376  and  _377
REMARK  155  A    between atoms: _376  and  _379
REMARK  156  A    between atoms: _379  and  _380
REMARK  157  A    between atoms: _383  and  _385
REMARK  158  A    between atoms: _385  and  _386
REMARK  159  A    between atoms: _385  and  _388
REMARK  160  A    between atoms: _388  and  _389
REMARK  161  A    between atoms: _392  and  _394
REMARK  162  A    between atoms: _394  and  _395
REMARK  163  A    between atoms: _394  and  _397
REMARK  164  A    between atoms: _397  and  _398
REMARK  165  A    between atoms: _401  and  _403
REMARK  166  A    between atoms: _403  and  _404
REMARK  167  A    between atoms: _403  and  _406
REMARK  168  A    between atoms: _406  and  _407
REMARK  169  A    between atoms: _407  and  _408
REMARK  170  A    between atoms: _408  and  _409
REMARK  171  A    between atoms: _409  and  _410
REMARK  172  A    between atoms: _414  and  _416
REMARK  173  A    between atoms: _416  and  _417
REMARK  174  A    between atoms: _416  and  _419
REMARK  175  A    between atoms: _419  and  _420
REMARK  176  A    between atoms: _420  and  _421
REMARK  177  A    between atoms: _423  and  _425
REMARK  178  A    between atoms: _425  and  _426
REMARK  179  A    between atoms: _425  and  _428
REMARK  180  A    between atoms: _428  and  _429
REMARK  181  A    between atoms: _432  and  _434
REMARK  182  A    between atoms: _434  and  _435
REMARK  183  A    between atoms: _437  and  _439
REMARK  184  A    between atoms: _439  and  _440
REMARK  185  A    between atoms: _442  and  _444
REMARK  186  A    between atoms: _444  and  _445
REMARK  187  A    between atoms: _444  and  _447
REMARK  188  A    between atoms: _447  and  _448
REMARK  189  A    between atoms: _451  and  _453
REMARK  190  A    between atoms: _453  and  _454
REMARK  191  A    between atoms: _456  and  _458
REMARK  192  A    between atoms: _458  and  _459
REMARK  193  A    between atoms: _461  and  _463
REMARK  194  A    between atoms: _463  and  _464
REMARK  195  A    between atoms: _463  and  _466
REMARK  196  A    between atoms: _466  and  _467
REMARK  197  A    between atoms: _473  and  _475
REMARK  198  A    between atoms: _475  and  _476
REMARK  199  A    between atoms: _475  and  _478
REMARK  200  A    between atoms: _478  and  _479
REMARK  201  A    between atoms: _482  and  _484
REMARK  202  A    between atoms: _484  and  _485
REMARK  203  A    between atoms: _484  and  _487
REMARK  204  A    between atoms: _490  and  _492
REMARK  205  A    between atoms: _492  and  _493
REMARK  206  A    between atoms: _492  and  _495
REMARK  207  A    between atoms: _495  and  _496
REMARK  208  A    between atoms: _500  and  _501
REMARK  209  A    between atoms: _506  and  _508
REMARK  210  A    between atoms: _508  and  _509
REMARK  211  A    between atoms: _508  and  _511
REMARK  212  A    between atoms: _511  and  _512
REMARK  213  A    between atoms: _516  and  _517
REMARK  214  A    between atoms: _522  and  _524
REMARK  215  A    between atoms: _524  and  _525
REMARK  216  A    between atoms: _524  and  _527
REMARK  217  A    between atoms: _530  and  _532
REMARK  218  A    between atoms: _532  and  _533
REMARK  219  A    between atoms: _532  and  _535
REMARK  220  A    between atoms: _535  and  _536
REMARK  221  A    between atoms: _541  and  _543
REMARK  222  A    between atoms: _543  and  _544
REMARK  223  A    between atoms: _543  and  _546
REMARK  224  A    between atoms: _546  and  _547
REMARK  225  A    between atoms: _550  and  _552
REMARK  226  A    between atoms: _552  and  _553
REMARK  227  A    between atoms: _552  and  _555
REMARK  228  A    between atoms: _555  and  _556
REMARK  229  A    between atoms: _559  and  _561
REMARK  230  A    between atoms: _561  and  _562
REMARK  231  A    between atoms: _564  and  _566
REMARK  232  A    between atoms: _566  and  _567
REMARK  233  A    between atoms: _566  and  _569
REMARK  234  A    between atoms: _569  and  _570
REMARK  235  A    between atoms: _570  and  _571
REMARK  236  A    between atoms: _571  and  _572
REMARK  237  A    between atoms: _581  and  _583
REMARK  238  A    between atoms: _583  and  _584
REMARK  239  A    between atoms: _583  and  _586
REMARK  240  A    between atoms: _586  and  _587
REMARK                            x       y       z     vdW  Elec       q    Type
REMARK                         _______ _______ _______ _____ _____    ______ ____
ROOT
ATOM      1  O   HOH     1       6.840  15.856  25.215  0.00  0.00    +0.000 OA
ENDROOT
TORSDOF 0
REMARK  Name = ../refined-set-2016/3nu4/3nu4_pocket.pdb
REMARK  240 active torsions:
REMARK  status: ('A' for Active; 'I' for Inactive)
REMARK    1  A    between atoms: _1  and  _3
REMARK    2  A    between atoms: _3  and  _4
REMARK    3  A    between atoms: _3  and  _6
REMARK    4  A    between atoms: _6  and  _7
REMARK    5  A    between atoms: _7  and  _8
REMARK    6  A    between atoms: _8  and  _9
REMARK    7  A    between atoms: _18  and  _20
REMARK    8  A    between atoms: _20  and  _21
REMARK    9  A    between atoms: _20  and  _23
REMARK   10  A    between atoms: _23  and  _24
REMARK   11  A    between atoms: _27  and  _29
REMARK   12  A    between atoms: _29  and  _30
REMARK   13  A    between atoms: _29  and  _32
REMARK   14  A    between atoms: _32  and  _33
REMARK   15  A    between atoms: _36  and  _38
REMARK   16  A    between atoms: _38  and  _39
REMARK   17  A    between atoms: _38  and  _41
REMARK   18  A    between atoms: _41  and  _42
REMARK   19  A    between atoms: _45  and  _47
REMARK   20  A    between atoms: _47  and  _48
REMARK   21  A    between atoms: _47  and  _50
REMARK   22  A    between atoms: _50  and  _51
REMARK   23  A    between atoms: _54  and  _56
REMARK   24  A    between atoms: _56  and  _57
REMARK   25  A    between atoms: _59  and  _61
REMARK   26  A    between atoms: _61  and  _62
REMARK   27  A    between atoms: _65  and  _67
REMARK   28  A    between atoms: _67  and  _68
REMARK   29  A    between atoms: _67  and  _70
REMARK   30  A    between atoms: _70  and  _71
REMARK   31  A    between atoms: _74  and  _76
REMARK   32  A    between atoms: _76  and  _77
REMARK   33  A    between atoms: _76  and  _79
REMARK   34  A    between atoms: _79  and  _80
REMARK   35  A    between atoms: _83  and  _85
REMARK   36  A    between atoms: _85  and  _86
REMARK   37  A    between atoms: _85  and  _88
REMARK   38  A    between atoms: _88  and  _89
REMARK   39  A    between atoms: _92  and  _94
REMARK   40  A    between atoms: _94  and  _95
REMARK   41  A    between atoms: _94  and  _97
REMARK   42  A    between atoms: _97  and  _98
REMARK   43  A    between atoms: _101  and  _103
REMARK   44  A    between atoms: _103  and  _104
REMARK   45  A    between atoms: _103  and  _106
REMARK   46  A    between atoms: _106  and  _107
REMARK   47  A    between atoms: _107  and  _108
REMARK   48  A    between atoms: _108  and  _109
REMARK   49  A    between atoms: _109  and  _110
REMARK   50  A    between atoms: _114  and  _116
REMARK   51  A    between atoms: _116  and  _117
REMARK   52  A    between atoms: _116  and  _119
REMARK   53  A    between atoms: _119  and  _120
REMARK   54  A    between atoms: _120  and  _121
REMARK   55  A    between atoms: _123  and  _125
REMARK   56  A    between atoms: _125  and  _126
REMARK   57  A    between atoms: _125  and  _128
REMARK   58  A    between atoms: _128  and  _129
REMARK   59  A    between atoms: _132  and  _134
REMARK   60  A    between atoms: _134  and  _135
REMARK   61  A    between atoms: _137  and  _139
REMARK   62  A    between atoms: _139  and  _140
REMARK   63  A    between atoms: _142  and  _144
REMARK   64  A    between atoms: _144  and  _145
REMARK   65  A    between atoms: _144  and  _147
REMARK   66  A    between atoms: _147  and  _148
REMARK   67  A    between atoms: _151  and  _153
REMARK   68  A    between atoms: _153  and  _154
REMARK   69  A    between atoms: _156  and  _158
REMARK   70  A    between atoms: _158  and  _159
REMARK   71  A    between atoms: _161  and  _163
REMARK   72  A    between atoms: _163  and  _164
REMARK   73  A    between atoms: _163  and  _166
REMARK   74  A    between atoms: _166  and  _167
REMARK   75  A    between atoms: _173  and  _175
REMARK   76  A    between atoms: _175  and  _176
REMARK   77  A    between atoms: _175  and  _178
REMARK   78  A    between atoms: _178  and  _179
REMARK   79  A    between atoms: _182  and  _184
REMARK   80  A    between atoms: _184  and  _185
REMARK   81  A    between atoms: _184  and  _187
REMARK   82  A    between atoms: _190  and  _192
REMARK   83  A    between atoms: _192  and  _193
REMARK   84  A    between atoms: _192  and  _195
REMARK   85  A    between atoms: _195  and  _196
REMARK   86  A    between atoms: _200  and  _201
REMARK   87  A    between atoms: _206  and  _208
REMARK   88  A    between atoms: _208  and  _209
REMARK   89  A    between atoms: _208  and  _211
REMARK   90  A    between atoms: _211  and  _212
REMARK   91  A    between atoms: _216  and  _217
REMARK   92  A    between atoms: _222  and  _224
REMARK   93  A    between atoms: _224  and  _225
REMARK   94  A    between atoms: _224  and  _227
REMARK   95  A    between atoms: _230  and  _232
REMARK   96  A    between atoms: _232  and  _233
REMARK   97  A    between atoms: _232  and  _235
REMARK   98  A    between atoms: _235  and  _236
REMARK   99  A    between atoms: _241  and  _243
REMARK  100  A    between atoms: _243  and  _244
REMARK  101  A    between atoms: _243  and  _246
REMARK  102  A    between atoms: _246  and  _247
REMARK  103  A    between atoms: _250  and  _252
REMARK  104  A    between atoms: _252  and  _253
REMARK  105  A    between atoms: _252  and  _255
REMARK  106  A    between atoms: _255  and  _256
REMARK  107  A    between atoms: _259  and  _261
REMARK  108  A    between atoms: _261  and  _262
REMARK  109  A    between atoms: _264  and  _266
REMARK  110  A    between atoms: _266  and  _267
REMARK  111  A    between atoms: _266  and  _269
REMARK  112  A    between atoms: _269  and  _270
REMARK  113  A    between atoms: _270  and  _271
REMARK  114  A    between atoms: _271  and  _272
REMARK  115  A    between atoms: _281  and  _283
REMARK  116  A    between atoms: _283  and  _284
REMARK  117  A    between atoms: _283  and  _286
REMARK  118  A    between atoms: _286  and  _287
REMARK  119  A    between atoms: _292  and  _294
REMARK  120  A    between atoms: _294  and  _295
REMARK  121  A    between atoms: _294  and  _297
REMARK  122  A    between atoms: _297  and  _298
REMARK  123  A    between atoms: _298  and  _299
REMARK  124  A    between atoms: _299  and  _300
REMARK  125  A    between atoms: _309  and  _311
REMARK  126  A    between atoms: _311  and  _312
REMARK  127  A    between atoms: _311  and  _314
REMARK  128  A    between atoms: _314  and  _315
REMARK  129  A    between atoms: _318  and  _320
REMARK  130  A    between atoms: _320  and  _321
REMARK  131  A    between atoms: _320  and  _323
REMARK  132  A    between atoms: _323  and  _324
REMARK  133  A    between atoms: _327  and  _329
REMARK  134  A    between atoms: _329  and  _330
REMARK  135  A    between atoms: _329  and  _332
REMARK  136  A    between atoms: _332  and  _333
REMARK  137  A    between atoms: _336  and  _338
REMARK  138  A    between atoms: _338  and  _339
REMARK  139  A    between atoms: _338  and  _341
REMARK  140  A    between atoms: _341  and  _342
REMARK  141  A    between atoms: _345  and  _347
REMARK  142  A    between atoms: _347  and  _348
REMARK  143  A    between atoms: _350  and  _352
REMARK  144  A    between atoms: _352  and  _353
REMARK  145  A    between atoms: _356  and  _358
REMARK  146  A    between atoms: _358  and  _359
REMARK  147  A    between atoms: _358  and  _361
REMARK  148  A    between atoms: _361  and  _362
REMARK  149  A    between atoms: _365  and  _367
REMARK  150  A    between atoms: _367  and  _368
REMARK  151  A    between atoms: _367  and  _370
REMARK  152  A    between atoms: _370  and  _371
REMARK  153  A    between atoms: _374  and  _376
REMARK  154  A    between atoms: _376  and  _377
REMARK  155  A    between atoms: _376  and  _379
REMARK  156  A    between atoms: _379  and  _380
REMARK  157  A    between atoms: _383  and  _385
REMARK  158  A    between atoms: _385  and  _386
REMARK  159  A    between atoms: _385  and  _388
REMARK  160  A    between atoms: _388  and  _389
REMARK  161  A    between atoms: _392  and  _394
REMARK  162  A    between atoms: _394  and  _395
REMARK  163  A    between atoms: _394  and  _397
REMARK  164  A    between atoms: _397  and  _398
REMARK  165  A    between atoms: _401  and  _403
REMARK  166  A    between atoms: _403  and  _404
REMARK  167  A    between atoms: _403  and  _406
REMARK  168  A    between atoms: _406  and  _407
REMARK  169  A    between atoms: _407  and  _408
REMARK  170  A    between atoms: _408  and  _409
REMARK  171  A    between atoms: _409  and  _410
REMARK  172  A    between atoms: _414  and  _416
REMARK  173  A    between atoms: _416  and  _417
REMARK  174  A    between atoms: _416  and  _419
REMARK  175  A    between atoms: _419  and  _420
REMARK  176  A    between atoms: _420  and  _421
REMARK  177  A    between atoms: _423  and  _425
REMARK  178  A    between atoms: _425  and  _426
REMARK  179  A    between atoms: _425  and  _428
REMARK  180  A    between atoms: _428  and  _429
REMARK  181  A    between atoms: _432  and  _434
REMARK  182  A    between atoms: _434  and  _435
REMARK  183  A    between atoms: _437  and  _439
REMARK  184  A    between atoms: _439  and  _440
REMARK  185  A    between atoms: _442  and  _444
REMARK  186  A    between atoms: _444  and  _445
REMARK  187  A    between atoms: _444  and  _447
REMARK  188  A    between atoms: _447  and  _448
REMARK  189  A    between atoms: _451  and  _453
REMARK  190  A    between atoms: _453  and  _454
REMARK  191  A    between atoms: _456  and  _458
REMARK  192  A    between atoms: _458  and  _459
REMARK  193  A    between atoms: _461  and  _463
REMARK  194  A    between atoms: _463  and  _464
REMARK  195  A    between atoms: _463  and  _466
REMARK  196  A    between atoms: _466  and  _467
REMARK  197  A    between atoms: _473  and  _475
REMARK  198  A    between atoms: _475  and  _476
REMARK  199  A    between atoms: _475  and  _478
REMARK  200  A    between atoms: _478  and  _479
REMARK  201  A    between atoms: _482  and  _484
REMARK  202  A    between atoms: _484  and  _485
REMARK  203  A    between atoms: _484  and  _487
REMARK  204  A    between atoms: _490  and  _492
REMARK  205  A    between atoms: _492  and  _493
REMARK  206  A    between atoms: _492  and  _495
REMARK  207  A    between atoms: _495  and  _496
REMARK  208  A    between atoms: _500  and  _501
REMARK  209  A    between atoms: _506  and  _508
REMARK  210  A    between atoms: _508  and  _509
REMARK  211  A    between atoms: _508  and  _511
REMARK  212  A    between atoms: _511  and  _512
REMARK  213  A    between atoms: _516  and  _517
REMARK  214  A    between atoms: _522  and  _524
REMARK  215  A    between atoms: _524  and  _525
REMARK  216  A    between atoms: _524  and  _527
REMARK  217  A    between atoms: _530  and  _532
REMARK  218  A    between atoms: _532  and  _533
REMARK  219  A    between atoms: _532  and  _535
REMARK  220  A    between atoms: _535  and  _536
REMARK  221  A    between atoms: _541  and  _543
REMARK  222  A    between atoms: _543  and  _544
REMARK  223  A    between atoms: _543  and  _546
REMARK  224  A    between atoms: _546  and  _547
REMARK  225  A    between atoms: _550  and  _552
REMARK  226  A    between atoms: _552  and  _553
REMARK  227  A    between atoms: _552  and  _555
REMARK  228  A    between atoms: _555  and  _556
REMARK  229  A    between atoms: _559  and  _561
REMARK  230  A    between atoms: _561  and  _562
REMARK  231  A    between atoms: _564  and  _566
REMARK  232  A    between atoms: _566  and  _567
REMARK  233  A    between atoms: _566  and  _569
REMARK  234  A    between atoms: _569  and  _570
REMARK  235  A    between atoms: _570  and  _571
REMARK  236  A    between atoms: _571  and  _572
REMARK  237  A    between atoms: _581  and  _583
REMARK  238  A    between atoms: _583  and  _584
REMARK  239  A    between atoms: _583  and  _586
REMARK  240  A    between atoms: _586  and  _587
REMARK                            x       y       z     vdW  Elec       q    Type
REMARK                         _______ _______ _______ _____ _____    ______ ____
ROOT
ATOM      1  O   HOH     1      10.466  15.267  17.191  0.00  0.00    +0.000 OA
ENDROOT
TORSDOF 0
REMARK  Name = ../refined-set-2016/3nu4/3nu4_pocket.pdb
REMARK  240 active torsions:
REMARK  status: ('A' for Active; 'I' for Inactive)
REMARK    1  A    between atoms: _1  and  _3
REMARK    2  A    between atoms: _3  and  _4
REMARK    3  A    between atoms: _3  and  _6
REMARK    4  A    between atoms: _6  and  _7
REMARK    5  A    between atoms: _7  and  _8
REMARK    6  A    between atoms: _8  and  _9
REMARK    7  A    between atoms: _18  and  _20
REMARK    8  A    between atoms: _20  and  _21
REMARK    9  A    between atoms: _20  and  _23
REMARK   10  A    between atoms: _23  and  _24
REMARK   11  A    between atoms: _27  and  _29
REMARK   12  A    between atoms: _29  and  _30
REMARK   13  A    between atoms: _29  and  _32
REMARK   14  A    between atoms: _32  and  _33
REMARK   15  A    between atoms: _36  and  _38
REMARK   16  A    between atoms: _38  and  _39
REMARK   17  A    between atoms: _38  and  _41
REMARK   18  A    between atoms: _41  and  _42
REMARK   19  A    between atoms: _45  and  _47
REMARK   20  A    between atoms: _47  and  _48
REMARK   21  A    between atoms: _47  and  _50
REMARK   22  A    between atoms: _50  and  _51
REMARK   23  A    between atoms: _54  and  _56
REMARK   24  A    between atoms: _56  and  _57
REMARK   25  A    between atoms: _59  and  _61
REMARK   26  A    between atoms: _61  and  _62
REMARK   27  A    between atoms: _65  and  _67
REMARK   28  A    between atoms: _67  and  _68
REMARK   29  A    between atoms: _67  and  _70
REMARK   30  A    between atoms: _70  and  _71
REMARK   31  A    between atoms: _74  and  _76
REMARK   32  A    between atoms: _76  and  _77
REMARK   33  A    between atoms: _76  and  _79
REMARK   34  A    between atoms: _79  and  _80
REMARK   35  A    between atoms: _83  and  _85
REMARK   36  A    between atoms: _85  and  _86
REMARK   37  A    between atoms: _85  and  _88
REMARK   38  A    between atoms: _88  and  _89
REMARK   39  A    between atoms: _92  and  _94
REMARK   40  A    between atoms: _94  and  _95
REMARK   41  A    between atoms: _94  and  _97
REMARK   42  A    between atoms: _97  and  _98
REMARK   43  A    between atoms: _101  and  _103
REMARK   44  A    between atoms: _103  and  _104
REMARK   45  A    between atoms: _103  and  _106
REMARK   46  A    between atoms: _106  and  _107
REMARK   47  A    between atoms: _107  and  _108
REMARK   48  A    between atoms: _108  and  _109
REMARK   49  A    between atoms: _109  and  _110
REMARK   50  A    between atoms: _114  and  _116
REMARK   51  A    between atoms: _116  and  _117
REMARK   52  A    between atoms: _116  and  _119
REMARK   53  A    between atoms: _119  and  _120
REMARK   54  A    between atoms: _120  and  _121
REMARK   55  A    between atoms: _123  and  _125
REMARK   56  A    between atoms: _125  and  _126
REMARK   57  A    between atoms: _125  and  _128
REMARK   58  A    between atoms: _128  and  _129
REMARK   59  A    between atoms: _132  and  _134
REMARK   60  A    between atoms: _134  and  _135
REMARK   61  A    between atoms: _137  and  _139
REMARK   62  A    between atoms: _139  and  _140
REMARK   63  A    between atoms: _142  and  _144
REMARK   64  A    between atoms: _144  and  _145
REMARK   65  A    between atoms: _144  and  _147
REMARK   66  A    between atoms: _147  and  _148
REMARK   67  A    between atoms: _151  and  _153
REMARK   68  A    between atoms: _153  and  _154
REMARK   69  A    between atoms: _156  and  _158
REMARK   70  A    between atoms: _158  and  _159
REMARK   71  A    between atoms: _161  and  _163
REMARK   72  A    between atoms: _163  and  _164
REMARK   73  A    between atoms: _163  and  _166
REMARK   74  A    between atoms: _166  and  _167
REMARK   75  A    between atoms: _173  and  _175
REMARK   76  A    between atoms: _175  and  _176
REMARK   77  A    between atoms: _175  and  _178
REMARK   78  A    between atoms: _178  and  _179
REMARK   79  A    between atoms: _182  and  _184
REMARK   80  A    between atoms: _184  and  _185
REMARK   81  A    between atoms: _184  and  _187
REMARK   82  A    between atoms: _190  and  _192
REMARK   83  A    between atoms: _192  and  _193
REMARK   84  A    between atoms: _192  and  _195
REMARK   85  A    between atoms: _195  and  _196
REMARK   86  A    between atoms: _200  and  _201
REMARK   87  A    between atoms: _206  and  _208
REMARK   88  A    between atoms: _208  and  _209
REMARK   89  A    between atoms: _208  and  _211
REMARK   90  A    between atoms: _211  and  _212
REMARK   91  A    between atoms: _216  and  _217
REMARK   92  A    between atoms: _222  and  _224
REMARK   93  A    between atoms: _224  and  _225
REMARK   94  A    between atoms: _224  and  _227
REMARK   95  A    between atoms: _230  and  _232
REMARK   96  A    between atoms: _232  and  _233
REMARK   97  A    between atoms: _232  and  _235
REMARK   98  A    between atoms: _235  and  _236
REMARK   99  A    between atoms: _241  and  _243
REMARK  100  A    between atoms: _243  and  _244
REMARK  101  A    between atoms: _243  and  _246
REMARK  102  A    between atoms: _246  and  _247
REMARK  103  A    between atoms: _250  and  _252
REMARK  104  A    between atoms: _252  and  _253
REMARK  105  A    between atoms: _252  and  _255
REMARK  106  A    between atoms: _255  and  _256
REMARK  107  A    between atoms: _259  and  _261
REMARK  108  A    between atoms: _261  and  _262
REMARK  109  A    between atoms: _264  and  _266
REMARK  110  A    between atoms: _266  and  _267
REMARK  111  A    between atoms: _266  and  _269
REMARK  112  A    between atoms: _269  and  _270
REMARK  113  A    between atoms: _270  and  _271
REMARK  114  A    between atoms: _271  and  _272
REMARK  115  A    between atoms: _281  and  _283
REMARK  116  A    between atoms: _283  and  _284
REMARK  117  A    between atoms: _283  and  _286
REMARK  118  A    between atoms: _286  and  _287
REMARK  119  A    between atoms: _292  and  _294
REMARK  120  A    between atoms: _294  and  _295
REMARK  121  A    between atoms: _294  and  _297
REMARK  122  A    between atoms: _297  and  _298
REMARK  123  A    between atoms: _298  and  _299
REMARK  124  A    between atoms: _299  and  _300
REMARK  125  A    between atoms: _309  and  _311
REMARK  126  A    between atoms: _311  and  _312
REMARK  127  A    between atoms: _311  and  _314
REMARK  128  A    between atoms: _314  and  _315
REMARK  129  A    between atoms: _318  and  _320
REMARK  130  A    between atoms: _320  and  _321
REMARK  131  A    between atoms: _320  and  _323
REMARK  132  A    between atoms: _323  and  _324
REMARK  133  A    between atoms: _327  and  _329
REMARK  134  A    between atoms: _329  and  _330
REMARK  135  A    between atoms: _329  and  _332
REMARK  136  A    between atoms: _332  and  _333
REMARK  137  A    between atoms: _336  and  _338
REMARK  138  A    between atoms: _338  and  _339
REMARK  139  A    between atoms: _338  and  _341
REMARK  140  A    between atoms: _341  and  _342
REMARK  141  A    between atoms: _345  and  _347
REMARK  142  A    between atoms: _347  and  _348
REMARK  143  A    between atoms: _350  and  _352
REMARK  144  A    between atoms: _352  and  _353
REMARK  145  A    between atoms: _356  and  _358
REMARK  146  A    between atoms: _358  and  _359
REMARK  147  A    between atoms: _358  and  _361
REMARK  148  A    between atoms: _361  and  _362
REMARK  149  A    between atoms: _365  and  _367
REMARK  150  A    between atoms: _367  and  _368
REMARK  151  A    between atoms: _367  and  _370
REMARK  152  A    between atoms: _370  and  _371
REMARK  153  A    between atoms: _374  and  _376
REMARK  154  A    between atoms: _376  and  _377
REMARK  155  A    between atoms: _376  and  _379
REMARK  156  A    between atoms: _379  and  _380
REMARK  157  A    between atoms: _383  and  _385
REMARK  158  A    between atoms: _385  and  _386
REMARK  159  A    between atoms: _385  and  _388
REMARK  160  A    between atoms: _388  and  _389
REMARK  161  A    between atoms: _392  and  _394
REMARK  162  A    between atoms: _394  and  _395
REMARK  163  A    between atoms: _394  and  _397
REMARK  164  A    between atoms: _397  and  _398
REMARK  165  A    between atoms: _401  and  _403
REMARK  166  A    between atoms: _403  and  _404
REMARK  167  A    between atoms: _403  and  _406
REMARK  168  A    between atoms: _406  and  _407
REMARK  169  A    between atoms: _407  and  _408
REMARK  170  A    between atoms: _408  and  _409
REMARK  171  A    between atoms: _409  and  _410
REMARK  172  A    between atoms: _414  and  _416
REMARK  173  A    between atoms: _416  and  _417
REMARK  174  A    between atoms: _416  and  _419
REMARK  175  A    between atoms: _419  and  _420
REMARK  176  A    between atoms: _420  and  _421
REMARK  177  A    between atoms: _423  and  _425
REMARK  178  A    between atoms: _425  and  _426
REMARK  179  A    between atoms: _425  and  _428
REMARK  180  A    between atoms: _428  and  _429
REMARK  181  A    between atoms: _432  and  _434
REMARK  182  A    between atoms: _434  and  _435
REMARK  183  A    between atoms: _437  and  _439
REMARK  184  A    between atoms: _439  and  _440
REMARK  185  A    between atoms: _442  and  _444
REMARK  186  A    between atoms: _444  and  _445
REMARK  187  A    between atoms: _444  and  _447
REMARK  188  A    between atoms: _447  and  _448
REMARK  189  A    between atoms: _451  and  _453
REMARK  190  A    between atoms: _453  and  _454
REMARK  191  A    between atoms: _456  and  _458
REMARK  192  A    between atoms: _458  and  _459
REMARK  193  A    between atoms: _461  and  _463
REMARK  194  A    between atoms: _463  and  _464
REMARK  195  A    between atoms: _463  and  _466
REMARK  196  A    between atoms: _466  and  _467
REMARK  197  A    between atoms: _473  and  _475
REMARK  198  A    between atoms: _475  and  _476
REMARK  199  A    between atoms: _475  and  _478
REMARK  200  A    between atoms: _478  and  _479
REMARK  201  A    between atoms: _482  and  _484
REMARK  202  A    between atoms: _484  and  _485
REMARK  203  A    between atoms: _484  and  _487
REMARK  204  A    between atoms: _490  and  _492
REMARK  205  A    between atoms: _492  and  _493
REMARK  206  A    between atoms: _492  and  _495
REMARK  207  A    between atoms: _495  and  _496
REMARK  208  A    between atoms: _500  and  _501
REMARK  209  A    between atoms: _506  and  _508
REMARK  210  A    between atoms: _508  and  _509
REMARK  211  A    between atoms: _508  and  _511
REMARK  212  A    between atoms: _511  and  _512
REMARK  213  A    between atoms: _516  and  _517
REMARK  214  A    between atoms: _522  and  _524
REMARK  215  A    between atoms: _524  and  _525
REMARK  216  A    between atoms: _524  and  _527
REMARK  217  A    between atoms: _530  and  _532
REMARK  218  A    between atoms: _532  and  _533
REMARK  219  A    between atoms: _532  and  _535
REMARK  220  A    between atoms: _535  and  _536
REMARK  221  A    between atoms: _541  and  _543
REMARK  222  A    between atoms: _543  and  _544
REMARK  223  A    between atoms: _543  and  _546
REMARK  224  A    between atoms: _546  and  _547
REMARK  225  A    between atoms: _550  and  _552
REMARK  226  A    between atoms: _552  and  _553
REMARK  227  A    between atoms: _552  and  _555
REMARK  228  A    between atoms: _555  and  _556
REMARK  229  A    between atoms: _559  and  _561
REMARK  230  A    between atoms: _561  and  _562
REMARK  231  A    between atoms: _564  and  _566
REMARK  232  A    between atoms: _566  and  _567
REMARK  233  A    between atoms: _566  and  _569
REMARK  234  A    between atoms: _569  and  _570
REMARK  235  A    between atoms: _570  and  _571
REMARK  236  A    between atoms: _571  and  _572
REMARK  237  A    between atoms: _581  and  _583
REMARK  238  A    between atoms: _583  and  _584
REMARK  239  A    between atoms: _583  and  _586
REMARK  240  A    between atoms: _586  and  _587
REMARK                            x       y       z     vdW  Elec       q    Type
REMARK                         _______ _______ _______ _____ _____    ______ ____
ROOT
ATOM      1  O   HOH     1      11.017  15.727   9.419  0.00  0.00    +0.000 OA
ENDROOT
TORSDOF 0
