REMARK  Name = ../refined-set-2016/4cpy/4cpy_pocket.pdb
REMARK  177 active torsions:
REMARK  status: ('A' for Active; 'I' for Inactive)
REMARK    1  A    between atoms: _1  and  _3
REMARK    2  A    between atoms: _3  and  _4
REMARK    3  A    between atoms: _3  and  _6
REMARK    4  A    between atoms: _6  and  _7
REMARK    5  A    between atoms: _7  and  _8
REMARK    6  A    between atoms: _8  and  _9
REMARK    7  A    between atoms: _18  and  _20
REMARK    8  A    between atoms: _20  and  _21
REMARK    9  A    between atoms: _20  and  _23
REMARK   10  A    between atoms: _23  and  _24
REMARK   11  A    between atoms: _24  and  _25
REMARK   12  A    between atoms: _28  and  _30
REMARK   13  A    between atoms: _30  and  _31
REMARK   14  A    between atoms: _30  and  _33
REMARK   15  A    between atoms: _33  and  _34
REMARK   16  A    between atoms: _37  and  _39
REMARK   17  A    between atoms: _39  and  _40
REMARK   18  A    between atoms: _39  and  _42
REMARK   19  A    between atoms: _42  and  _43
REMARK   20  A    between atoms: _48  and  _50
REMARK   21  A    between atoms: _50  and  _51
REMARK   22  A    between atoms: _50  and  _53
REMARK   23  A    between atoms: _53  and  _54
REMARK   24  A    between atoms: _54  and  _55
REMARK   25  A    between atoms: _55  and  _56
REMARK   26  A    between atoms: _65  and  _67
REMARK   27  A    between atoms: _67  and  _68
REMARK   28  A    between atoms: _70  and  _72
REMARK   29  A    between atoms: _72  and  _73
REMARK   30  A    between atoms: _72  and  _75
REMARK   31  A    between atoms: _75  and  _76
REMARK   32  A    between atoms: _79  and  _81
REMARK   33  A    between atoms: _81  and  _82
REMARK   34  A    between atoms: _81  and  _84
REMARK   35  A    between atoms: _84  and  _85
REMARK   36  A    between atoms: _85  and  _86
REMARK   37  A    between atoms: _86  and  _87
REMARK   38  A    between atoms: _96  and  _98
REMARK   39  A    between atoms: _98  and  _99
REMARK   40  A    between atoms: _98  and  _101
REMARK   41  A    between atoms: _101  and  _102
REMARK   42  A    between atoms: _107  and  _109
REMARK   43  A    between atoms: _109  and  _110
REMARK   44  A    between atoms: _109  and  _112
REMARK   45  A    between atoms: _112  and  _113
REMARK   46  A    between atoms: _113  and  _114
REMARK   47  A    between atoms: _114  and  _115
REMARK   48  A    between atoms: _124  and  _126
REMARK   49  A    between atoms: _126  and  _127
REMARK   50  A    between atoms: _126  and  _129
REMARK   51  A    between atoms: _129  and  _130
REMARK   52  A    between atoms: _140  and  _142
REMARK   53  A    between atoms: _142  and  _143
REMARK   54  A    between atoms: _142  and  _145
REMARK   55  A    between atoms: _145  and  _146
REMARK   56  A    between atoms: _148  and  _150
REMARK   57  A    between atoms: _150  and  _151
REMARK   58  A    between atoms: _153  and  _155
REMARK   59  A    between atoms: _155  and  _156
REMARK   60  A    between atoms: _155  and  _158
REMARK   61  A    between atoms: _161  and  _163
REMARK   62  A    between atoms: _163  and  _164
REMARK   63  A    between atoms: _163  and  _166
REMARK   64  A    between atoms: _166  and  _167
REMARK   65  A    between atoms: _170  and  _172
REMARK   66  A    between atoms: _172  and  _173
REMARK   67  A    between atoms: _172  and  _175
REMARK   68  A    between atoms: _175  and  _176
REMARK   69  A    between atoms: _179  and  _181
REMARK   70  A    between atoms: _181  and  _182
REMARK   71  A    between atoms: _181  and  _184
REMARK   72  A    between atoms: _184  and  _185
REMARK   73  A    between atoms: _188  and  _190
REMARK   74  A    between atoms: _190  and  _191
REMARK   75  A    between atoms: _190  and  _193
REMARK   76  A    between atoms: _193  and  _194
REMARK   77  A    between atoms: _194  and  _195
REMARK   78  A    between atoms: _195  and  _196
REMARK   79  A    between atoms: _205  and  _207
REMARK   80  A    between atoms: _207  and  _208
REMARK   81  A    between atoms: _207  and  _210
REMARK   82  A    between atoms: _210  and  _211
REMARK   83  A    between atoms: _214  and  _216
REMARK   84  A    between atoms: _216  and  _217
REMARK   85  A    between atoms: _216  and  _219
REMARK   86  A    between atoms: _219  and  _220
REMARK   87  A    between atoms: _220  and  _221
REMARK   88  A    between atoms: _224  and  _226
REMARK   89  A    between atoms: _226  and  _227
REMARK   90  A    between atoms: _226  and  _229
REMARK   91  A    between atoms: _229  and  _230
REMARK   92  A    between atoms: _233  and  _235
REMARK   93  A    between atoms: _235  and  _236
REMARK   94  A    between atoms: _238  and  _240
REMARK   95  A    between atoms: _240  and  _241
REMARK   96  A    between atoms: _240  and  _243
REMARK   97  A    between atoms: _243  and  _244
REMARK   98  A    between atoms: _246  and  _248
REMARK   99  A    between atoms: _248  and  _249
REMARK  100  A    between atoms: _252  and  _254
REMARK  101  A    between atoms: _254  and  _255
REMARK  102  A    between atoms: _254  and  _257
REMARK  103  A    between atoms: _257  and  _258
REMARK  104  A    between atoms: _260  and  _262
REMARK  105  A    between atoms: _262  and  _263
REMARK  106  A    between atoms: _262  and  _265
REMARK  107  A    between atoms: _265  and  _266
REMARK  108  A    between atoms: _268  and  _270
REMARK  109  A    between atoms: _270  and  _271
REMARK  110  A    between atoms: _270  and  _273
REMARK  111  A    between atoms: _273  and  _274
REMARK  112  A    between atoms: _279  and  _281
REMARK  113  A    between atoms: _281  and  _282
REMARK  114  A    between atoms: _281  and  _284
REMARK  115  A    between atoms: _284  and  _285
REMARK  116  A    between atoms: _285  and  _286
REMARK  117  A    between atoms: _289  and  _291
REMARK  118  A    between atoms: _291  and  _292
REMARK  119  A    between atoms: _291  and  _294
REMARK  120  A    between atoms: _294  and  _295
REMARK  121  A    between atoms: _295  and  _296
REMARK  122  A    between atoms: _299  and  _301
REMARK  123  A    between atoms: _301  and  _302
REMARK  124  A    between atoms: _301  and  _304
REMARK  125  A    between atoms: _304  and  _305
REMARK  126  A    between atoms: _305  and  _306
REMARK  127  A    between atoms: _306  and  _307
REMARK  128  A    between atoms: _316  and  _318
REMARK  129  A    between atoms: _318  and  _319
REMARK  130  A    between atoms: _318  and  _321
REMARK  131  A    between atoms: _321  and  _322
REMARK  132  A    between atoms: _327  and  _329
REMARK  133  A    between atoms: _329  and  _330
REMARK  134  A    between atoms: _329  and  _332
REMARK  135  A    between atoms: _332  and  _333
REMARK  136  A    between atoms: _336  and  _338
REMARK  137  A    between atoms: _338  and  _339
REMARK  138  A    between atoms: _341  and  _343
REMARK  139  A    between atoms: _343  and  _344
REMARK  140  A    between atoms: _346  and  _348
REMARK  141  A    between atoms: _348  and  _349
REMARK  142  A    between atoms: _348  and  _351
REMARK  143  A    between atoms: _351  and  _352
REMARK  144  A    between atoms: _355  and  _357
REMARK  145  A    between atoms: _357  and  _358
REMARK  146  A    between atoms: _357  and  _360
REMARK  147  A    between atoms: _360  and  _361
REMARK  148  A    between atoms: _361  and  _362
REMARK  149  A    between atoms: _362  and  _363
REMARK  150  A    between atoms: _363  and  _364
REMARK  151  A    between atoms: _368  and  _370
REMARK  152  A    between atoms: _370  and  _371
REMARK  153  A    between atoms: _370  and  _373
REMARK  154  A    between atoms: _373  and  _374
REMARK  155  A    between atoms: _374  and  _375
REMARK  156  A    between atoms: _375  and  _376
REMARK  157  A    between atoms: _385  and  _387
REMARK  158  A    between atoms: _387  and  _388
REMARK  159  A    between atoms: _387  and  _390
REMARK  160  A    between atoms: _390  and  _391
REMARK  161  A    between atoms: _401  and  _403
REMARK  162  A    between atoms: _403  and  _404
REMARK  163  A    between atoms: _403  and  _406
REMARK  164  A    between atoms: _406  and  _407
REMARK  165  A    between atoms: _412  and  _413
REMARK  166  A    between atoms: _415  and  _417
REMARK  167  A    between atoms: _417  and  _418
REMARK  168  A    between atoms: _417  and  _420
REMARK  169  A    between atoms: _420  and  _421
REMARK  170  A    between atoms: _421  and  _422
REMARK  171  A    between atoms: _425  and  _427
REMARK  172  A    between atoms: _427  and  _428
REMARK  173  A    between atoms: _427  and  _430
REMARK  174  A    between atoms: _433  and  _435
REMARK  175  A    between atoms: _435  and  _436
REMARK  176  A    between atoms: _435  and  _438
REMARK  177  A    between atoms: _438  and  _439
REMARK                            x       y       z     vdW  Elec       q    Type
REMARK                         _______ _______ _______ _____ _____    ______ ____
ROOT
ATOM      1  CA  ARG A   1     -28.957  85.854  16.587  0.00  0.00    +0.145 C 
ENDROOT
BRANCH   1   2
ATOM      2  C   ARG A   1     -27.869  84.796  16.493  0.00  0.00    +0.238 C 
ATOM      3  O   ARG A   1     -27.605  84.079  17.471  0.00  0.00    -0.274 OA
ATOM      4  N   GLU A   2     -27.268  84.677  15.316  0.00  0.00    -0.298 N 
ATOM      5  H   GLU A   2     -27.559  85.306  14.540  0.00  0.00    +0.150 HD
BRANCH   4   6
ATOM      6  CA  GLU A   2     -26.219  83.702  15.069  0.00  0.00    +0.137 C 
BRANCH   6   7
ATOM      7  C   GLU A   2     -26.613  82.272  15.426  0.00  0.00    +0.227 C 
ATOM      8  O   GLU A   2     -25.889  81.589  16.148  0.00  0.00    -0.286 OA
ENDBRANCH   6   7
BRANCH   6   9
ATOM      9  CB  GLU A   2     -24.924  84.094  15.801  0.00  0.00    +0.039 C 
BRANCH   9  10
ATOM     10  CG  GLU A   2     -24.356  85.449  15.402  0.00  0.00    +0.116 C 
BRANCH  10  11
ATOM     11  CD  GLU A   2     -24.953  86.624  16.151  0.00  0.00    +0.365 C 
ATOM     12  OE2 GLU A   2     -25.441  86.451  17.297  0.00  0.00    -0.246 OA
ATOM     13  OE1 GLU A   2     -24.924  87.744  15.582  0.00  0.00    -0.246 OA
ENDBRANCH  10  11
ENDBRANCH   9  10
ENDBRANCH   6   9
ENDBRANCH   4   6
ENDBRANCH   1   2
BRANCH   1  14
ATOM     14  N   ARG A   1     -29.502  85.751  17.932  0.00  0.00    -0.238 NA
ATOM     15  H   ARG A   1     -28.889  85.399  18.694  0.00  0.00    +0.142 HD
ENDBRANCH   1  14
BRANCH   1  16
ATOM     16  CB  ARG A   1     -28.445  87.267  16.260  0.00  0.00    +0.030 C 
BRANCH  16  17
ATOM     17  CG  ARG A   1     -29.381  88.095  15.361  0.00  0.00    +0.045 C 
BRANCH  17  18
ATOM     18  CD  ARG A   1     -28.621  89.051  14.429  0.00  0.00    +0.174 C 
BRANCH  18  19
ATOM     19  NE  ARG A   1     -27.841  88.342  13.408  0.00  0.00    -0.265 N 
ATOM     20  HE  ARG A   1     -28.157  87.386  13.148  0.00  0.00    +0.259 HD
ATOM     21  CZ  ARG A   1     -26.758  88.820  12.782  0.00  0.00    +0.342 C 
ATOM     22  NH2 ARG A   1     -26.299  90.043  13.023  0.00  0.00    -0.292 N 
ATOM     23 HH21 ARG A   1     -26.783  90.654  13.712  0.00  0.00    +0.255 HD
ATOM     24 HH22 ARG A   1     -25.456  90.390  12.523  0.00  0.00    +0.255 HD
ATOM     25  NH1 ARG A   1     -26.129  88.064  11.886  0.00  0.00    -0.292 N 
ATOM     26 HH11 ARG A   1     -26.479  87.108  11.675  0.00  0.00    +0.255 HD
ATOM     27 HH12 ARG A   1     -25.287  88.429  11.396  0.00  0.00    +0.255 HD
ENDBRANCH  18  19
ENDBRANCH  17  18
ENDBRANCH  16  17
ENDBRANCH   1  16
TORSDOF 11
REMARK  Name = ../refined-set-2016/4cpy/4cpy_pocket.pdb
REMARK  177 active torsions:
REMARK  status: ('A' for Active; 'I' for Inactive)
REMARK    1  A    between atoms: _1  and  _3
REMARK    2  A    between atoms: _3  and  _4
REMARK    3  A    between atoms: _3  and  _6
REMARK    4  A    between atoms: _6  and  _7
REMARK    5  A    between atoms: _7  and  _8
REMARK    6  A    between atoms: _8  and  _9
REMARK    7  A    between atoms: _18  and  _20
REMARK    8  A    between atoms: _20  and  _21
REMARK    9  A    between atoms: _20  and  _23
REMARK   10  A    between atoms: _23  and  _24
REMARK   11  A    between atoms: _24  and  _25
REMARK   12  A    between atoms: _28  and  _30
REMARK   13  A    between atoms: _30  and  _31
REMARK   14  A    between atoms: _30  and  _33
REMARK   15  A    between atoms: _33  and  _34
REMARK   16  A    between atoms: _37  and  _39
REMARK   17  A    between atoms: _39  and  _40
REMARK   18  A    between atoms: _39  and  _42
REMARK   19  A    between atoms: _42  and  _43
REMARK   20  A    between atoms: _48  and  _50
REMARK   21  A    between atoms: _50  and  _51
REMARK   22  A    between atoms: _50  and  _53
REMARK   23  A    between atoms: _53  and  _54
REMARK   24  A    between atoms: _54  and  _55
REMARK   25  A    between atoms: _55  and  _56
REMARK   26  A    between atoms: _65  and  _67
REMARK   27  A    between atoms: _67  and  _68
REMARK   28  A    between atoms: _70  and  _72
REMARK   29  A    between atoms: _72  and  _73
REMARK   30  A    between atoms: _72  and  _75
REMARK   31  A    between atoms: _75  and  _76
REMARK   32  A    between atoms: _79  and  _81
REMARK   33  A    between atoms: _81  and  _82
REMARK   34  A    between atoms: _81  and  _84
REMARK   35  A    between atoms: _84  and  _85
REMARK   36  A    between atoms: _85  and  _86
REMARK   37  A    between atoms: _86  and  _87
REMARK   38  A    between atoms: _96  and  _98
REMARK   39  A    between atoms: _98  and  _99
REMARK   40  A    between atoms: _98  and  _101
REMARK   41  A    between atoms: _101  and  _102
REMARK   42  A    between atoms: _107  and  _109
REMARK   43  A    between atoms: _109  and  _110
REMARK   44  A    between atoms: _109  and  _112
REMARK   45  A    between atoms: _112  and  _113
REMARK   46  A    between atoms: _113  and  _114
REMARK   47  A    between atoms: _114  and  _115
REMARK   48  A    between atoms: _124  and  _126
REMARK   49  A    between atoms: _126  and  _127
REMARK   50  A    between atoms: _126  and  _129
REMARK   51  A    between atoms: _129  and  _130
REMARK   52  A    between atoms: _140  and  _142
REMARK   53  A    between atoms: _142  and  _143
REMARK   54  A    between atoms: _142  and  _145
REMARK   55  A    between atoms: _145  and  _146
REMARK   56  A    between atoms: _148  and  _150
REMARK   57  A    between atoms: _150  and  _151
REMARK   58  A    between atoms: _153  and  _155
REMARK   59  A    between atoms: _155  and  _156
REMARK   60  A    between atoms: _155  and  _158
REMARK   61  A    between atoms: _161  and  _163
REMARK   62  A    between atoms: _163  and  _164
REMARK   63  A    between atoms: _163  and  _166
REMARK   64  A    between atoms: _166  and  _167
REMARK   65  A    between atoms: _170  and  _172
REMARK   66  A    between atoms: _172  and  _173
REMARK   67  A    between atoms: _172  and  _175
REMARK   68  A    between atoms: _175  and  _176
REMARK   69  A    between atoms: _179  and  _181
REMARK   70  A    between atoms: _181  and  _182
REMARK   71  A    between atoms: _181  and  _184
REMARK   72  A    between atoms: _184  and  _185
REMARK   73  A    between atoms: _188  and  _190
REMARK   74  A    between atoms: _190  and  _191
REMARK   75  A    between atoms: _190  and  _193
REMARK   76  A    between atoms: _193  and  _194
REMARK   77  A    between atoms: _194  and  _195
REMARK   78  A    between atoms: _195  and  _196
REMARK   79  A    between atoms: _205  and  _207
REMARK   80  A    between atoms: _207  and  _208
REMARK   81  A    between atoms: _207  and  _210
REMARK   82  A    between atoms: _210  and  _211
REMARK   83  A    between atoms: _214  and  _216
REMARK   84  A    between atoms: _216  and  _217
REMARK   85  A    between atoms: _216  and  _219
REMARK   86  A    between atoms: _219  and  _220
REMARK   87  A    between atoms: _220  and  _221
REMARK   88  A    between atoms: _224  and  _226
REMARK   89  A    between atoms: _226  and  _227
REMARK   90  A    between atoms: _226  and  _229
REMARK   91  A    between atoms: _229  and  _230
REMARK   92  A    between atoms: _233  and  _235
REMARK   93  A    between atoms: _235  and  _236
REMARK   94  A    between atoms: _238  and  _240
REMARK   95  A    between atoms: _240  and  _241
REMARK   96  A    between atoms: _240  and  _243
REMARK   97  A    between atoms: _243  and  _244
REMARK   98  A    between atoms: _246  and  _248
REMARK   99  A    between atoms: _248  and  _249
REMARK  100  A    between atoms: _252  and  _254
REMARK  101  A    between atoms: _254  and  _255
REMARK  102  A    between atoms: _254  and  _257
REMARK  103  A    between atoms: _257  and  _258
REMARK  104  A    between atoms: _260  and  _262
REMARK  105  A    between atoms: _262  and  _263
REMARK  106  A    between atoms: _262  and  _265
REMARK  107  A    between atoms: _265  and  _266
REMARK  108  A    between atoms: _268  and  _270
REMARK  109  A    between atoms: _270  and  _271
REMARK  110  A    between atoms: _270  and  _273
REMARK  111  A    between atoms: _273  and  _274
REMARK  112  A    between atoms: _279  and  _281
REMARK  113  A    between atoms: _281  and  _282
REMARK  114  A    between atoms: _281  and  _284
REMARK  115  A    between atoms: _284  and  _285
REMARK  116  A    between atoms: _285  and  _286
REMARK  117  A    between atoms: _289  and  _291
REMARK  118  A    between atoms: _291  and  _292
REMARK  119  A    between atoms: _291  and  _294
REMARK  120  A    between atoms: _294  and  _295
REMARK  121  A    between atoms: _295  and  _296
REMARK  122  A    between atoms: _299  and  _301
REMARK  123  A    between atoms: _301  and  _302
REMARK  124  A    between atoms: _301  and  _304
REMARK  125  A    between atoms: _304  and  _305
REMARK  126  A    between atoms: _305  and  _306
REMARK  127  A    between atoms: _306  and  _307
REMARK  128  A    between atoms: _316  and  _318
REMARK  129  A    between atoms: _318  and  _319
REMARK  130  A    between atoms: _318  and  _321
REMARK  131  A    between atoms: _321  and  _322
REMARK  132  A    between atoms: _327  and  _329
REMARK  133  A    between atoms: _329  and  _330
REMARK  134  A    between atoms: _329  and  _332
REMARK  135  A    between atoms: _332  and  _333
REMARK  136  A    between atoms: _336  and  _338
REMARK  137  A    between atoms: _338  and  _339
REMARK  138  A    between atoms: _341  and  _343
REMARK  139  A    between atoms: _343  and  _344
REMARK  140  A    between atoms: _346  and  _348
REMARK  141  A    between atoms: _348  and  _349
REMARK  142  A    between atoms: _348  and  _351
REMARK  143  A    between atoms: _351  and  _352
REMARK  144  A    between atoms: _355  and  _357
REMARK  145  A    between atoms: _357  and  _358
REMARK  146  A    between atoms: _357  and  _360
REMARK  147  A    between atoms: _360  and  _361
REMARK  148  A    between atoms: _361  and  _362
REMARK  149  A    between atoms: _362  and  _363
REMARK  150  A    between atoms: _363  and  _364
REMARK  151  A    between atoms: _368  and  _370
REMARK  152  A    between atoms: _370  and  _371
REMARK  153  A    between atoms: _370  and  _373
REMARK  154  A    between atoms: _373  and  _374
REMARK  155  A    between atoms: _374  and  _375
REMARK  156  A    between atoms: _375  and  _376
REMARK  157  A    between atoms: _385  and  _387
REMARK  158  A    between atoms: _387  and  _388
REMARK  159  A    between atoms: _387  and  _390
REMARK  160  A    between atoms: _390  and  _391
REMARK  161  A    between atoms: _401  and  _403
REMARK  162  A    between atoms: _403  and  _404
REMARK  163  A    between atoms: _403  and  _406
REMARK  164  A    between atoms: _406  and  _407
REMARK  165  A    between atoms: _412  and  _413
REMARK  166  A    between atoms: _415  and  _417
REMARK  167  A    between atoms: _417  and  _418
REMARK  168  A    between atoms: _417  and  _420
REMARK  169  A    between atoms: _420  and  _421
REMARK  170  A    between atoms: _421  and  _422
REMARK  171  A    between atoms: _425  and  _427
REMARK  172  A    between atoms: _427  and  _428
REMARK  173  A    between atoms: _427  and  _430
REMARK  174  A    between atoms: _433  and  _435
REMARK  175  A    between atoms: _435  and  _436
REMARK  176  A    between atoms: _435  and  _438
REMARK  177  A    between atoms: _438  and  _439
REMARK                            x       y       z     vdW  Elec       q    Type
REMARK                         _______ _______ _______ _____ _____    ______ ____
ROOT
ATOM      1  CA  LEU A   1     -26.534  83.508  20.986  0.00  0.00    +0.133 C 
ENDROOT
BRANCH   1   2
ATOM      2  N   LEU A   1     -27.041  82.546  20.000  0.00  0.00    -0.239 NA
ATOM      3  H   LEU A   1     -27.227  82.880  19.033  0.00  0.00    +0.142 HD
ENDBRANCH   1   2
BRANCH   1   4
ATOM      4  C   LEU A   1     -27.698  84.399  21.402  0.00  0.00    +0.224 C 
ATOM      5  O   LEU A   1     -28.176  85.222  20.599  0.00  0.00    -0.287 OA
ENDBRANCH   1   4
BRANCH   1   6
ATOM      6  CB  LEU A   1     -25.404  84.353  20.383  0.00  0.00    +0.025 C 
BRANCH   6   7
ATOM      7  CG  LEU A   1     -24.132  83.566  20.048  0.00  0.00    +0.002 C 
ATOM      8  CD2 LEU A   1     -23.551  82.908  21.297  0.00  0.00    +0.000 C 
ATOM      9  CD1 LEU A   1     -23.105  84.448  19.340  0.00  0.00    +0.000 C 
ENDBRANCH   6   7
ENDBRANCH   1   6
TORSDOF 4
REMARK  Name = ../refined-set-2016/4cpy/4cpy_pocket.pdb
REMARK  177 active torsions:
REMARK  status: ('A' for Active; 'I' for Inactive)
REMARK    1  A    between atoms: _1  and  _3
REMARK    2  A    between atoms: _3  and  _4
REMARK    3  A    between atoms: _3  and  _6
REMARK    4  A    between atoms: _6  and  _7
REMARK    5  A    between atoms: _7  and  _8
REMARK    6  A    between atoms: _8  and  _9
REMARK    7  A    between atoms: _18  and  _20
REMARK    8  A    between atoms: _20  and  _21
REMARK    9  A    between atoms: _20  and  _23
REMARK   10  A    between atoms: _23  and  _24
REMARK   11  A    between atoms: _24  and  _25
REMARK   12  A    between atoms: _28  and  _30
REMARK   13  A    between atoms: _30  and  _31
REMARK   14  A    between atoms: _30  and  _33
REMARK   15  A    between atoms: _33  and  _34
REMARK   16  A    between atoms: _37  and  _39
REMARK   17  A    between atoms: _39  and  _40
REMARK   18  A    between atoms: _39  and  _42
REMARK   19  A    between atoms: _42  and  _43
REMARK   20  A    between atoms: _48  and  _50
REMARK   21  A    between atoms: _50  and  _51
REMARK   22  A    between atoms: _50  and  _53
REMARK   23  A    between atoms: _53  and  _54
REMARK   24  A    between atoms: _54  and  _55
REMARK   25  A    between atoms: _55  and  _56
REMARK   26  A    between atoms: _65  and  _67
REMARK   27  A    between atoms: _67  and  _68
REMARK   28  A    between atoms: _70  and  _72
REMARK   29  A    between atoms: _72  and  _73
REMARK   30  A    between atoms: _72  and  _75
REMARK   31  A    between atoms: _75  and  _76
REMARK   32  A    between atoms: _79  and  _81
REMARK   33  A    between atoms: _81  and  _82
REMARK   34  A    between atoms: _81  and  _84
REMARK   35  A    between atoms: _84  and  _85
REMARK   36  A    between atoms: _85  and  _86
REMARK   37  A    between atoms: _86  and  _87
REMARK   38  A    between atoms: _96  and  _98
REMARK   39  A    between atoms: _98  and  _99
REMARK   40  A    between atoms: _98  and  _101
REMARK   41  A    between atoms: _101  and  _102
REMARK   42  A    between atoms: _107  and  _109
REMARK   43  A    between atoms: _109  and  _110
REMARK   44  A    between atoms: _109  and  _112
REMARK   45  A    between atoms: _112  and  _113
REMARK   46  A    between atoms: _113  and  _114
REMARK   47  A    between atoms: _114  and  _115
REMARK   48  A    between atoms: _124  and  _126
REMARK   49  A    between atoms: _126  and  _127
REMARK   50  A    between atoms: _126  and  _129
REMARK   51  A    between atoms: _129  and  _130
REMARK   52  A    between atoms: _140  and  _142
REMARK   53  A    between atoms: _142  and  _143
REMARK   54  A    between atoms: _142  and  _145
REMARK   55  A    between atoms: _145  and  _146
REMARK   56  A    between atoms: _148  and  _150
REMARK   57  A    between atoms: _150  and  _151
REMARK   58  A    between atoms: _153  and  _155
REMARK   59  A    between atoms: _155  and  _156
REMARK   60  A    between atoms: _155  and  _158
REMARK   61  A    between atoms: _161  and  _163
REMARK   62  A    between atoms: _163  and  _164
REMARK   63  A    between atoms: _163  and  _166
REMARK   64  A    between atoms: _166  and  _167
REMARK   65  A    between atoms: _170  and  _172
REMARK   66  A    between atoms: _172  and  _173
REMARK   67  A    between atoms: _172  and  _175
REMARK   68  A    between atoms: _175  and  _176
REMARK   69  A    between atoms: _179  and  _181
REMARK   70  A    between atoms: _181  and  _182
REMARK   71  A    between atoms: _181  and  _184
REMARK   72  A    between atoms: _184  and  _185
REMARK   73  A    between atoms: _188  and  _190
REMARK   74  A    between atoms: _190  and  _191
REMARK   75  A    between atoms: _190  and  _193
REMARK   76  A    between atoms: _193  and  _194
REMARK   77  A    between atoms: _194  and  _195
REMARK   78  A    between atoms: _195  and  _196
REMARK   79  A    between atoms: _205  and  _207
REMARK   80  A    between atoms: _207  and  _208
REMARK   81  A    between atoms: _207  and  _210
REMARK   82  A    between atoms: _210  and  _211
REMARK   83  A    between atoms: _214  and  _216
REMARK   84  A    between atoms: _216  and  _217
REMARK   85  A    between atoms: _216  and  _219
REMARK   86  A    between atoms: _219  and  _220
REMARK   87  A    between atoms: _220  and  _221
REMARK   88  A    between atoms: _224  and  _226
REMARK   89  A    between atoms: _226  and  _227
REMARK   90  A    between atoms: _226  and  _229
REMARK   91  A    between atoms: _229  and  _230
REMARK   92  A    between atoms: _233  and  _235
REMARK   93  A    between atoms: _235  and  _236
REMARK   94  A    between atoms: _238  and  _240
REMARK   95  A    between atoms: _240  and  _241
REMARK   96  A    between atoms: _240  and  _243
REMARK   97  A    between atoms: _243  and  _244
REMARK   98  A    between atoms: _246  and  _248
REMARK   99  A    between atoms: _248  and  _249
REMARK  100  A    between atoms: _252  and  _254
REMARK  101  A    between atoms: _254  and  _255
REMARK  102  A    between atoms: _254  and  _257
REMARK  103  A    between atoms: _257  and  _258
REMARK  104  A    between atoms: _260  and  _262
REMARK  105  A    between atoms: _262  and  _263
REMARK  106  A    between atoms: _262  and  _265
REMARK  107  A    between atoms: _265  and  _266
REMARK  108  A    between atoms: _268  and  _270
REMARK  109  A    between atoms: _270  and  _271
REMARK  110  A    between atoms: _270  and  _273
REMARK  111  A    between atoms: _273  and  _274
REMARK  112  A    between atoms: _279  and  _281
REMARK  113  A    between atoms: _281  and  _282
REMARK  114  A    between atoms: _281  and  _284
REMARK  115  A    between atoms: _284  and  _285
REMARK  116  A    between atoms: _285  and  _286
REMARK  117  A    between atoms: _289  and  _291
REMARK  118  A    between atoms: _291  and  _292
REMARK  119  A    between atoms: _291  and  _294
REMARK  120  A    between atoms: _294  and  _295
REMARK  121  A    between atoms: _295  and  _296
REMARK  122  A    between atoms: _299  and  _301
REMARK  123  A    between atoms: _301  and  _302
REMARK  124  A    between atoms: _301  and  _304
REMARK  125  A    between atoms: _304  and  _305
REMARK  126  A    between atoms: _305  and  _306
REMARK  127  A    between atoms: _306  and  _307
REMARK  128  A    between atoms: _316  and  _318
REMARK  129  A    between atoms: _318  and  _319
REMARK  130  A    between atoms: _318  and  _321
REMARK  131  A    between atoms: _321  and  _322
REMARK  132  A    between atoms: _327  and  _329
REMARK  133  A    between atoms: _329  and  _330
REMARK  134  A    between atoms: _329  and  _332
REMARK  135  A    between atoms: _332  and  _333
REMARK  136  A    between atoms: _336  and  _338
REMARK  137  A    between atoms: _338  and  _339
REMARK  138  A    between atoms: _341  and  _343
REMARK  139  A    between atoms: _343  and  _344
REMARK  140  A    between atoms: _346  and  _348
REMARK  141  A    between atoms: _348  and  _349
REMARK  142  A    between atoms: _348  and  _351
REMARK  143  A    between atoms: _351  and  _352
REMARK  144  A    between atoms: _355  and  _357
REMARK  145  A    between atoms: _357  and  _358
REMARK  146  A    between atoms: _357  and  _360
REMARK  147  A    between atoms: _360  and  _361
REMARK  148  A    between atoms: _361  and  _362
REMARK  149  A    between atoms: _362  and  _363
REMARK  150  A    between atoms: _363  and  _364
REMARK  151  A    between atoms: _368  and  _370
REMARK  152  A    between atoms: _370  and  _371
REMARK  153  A    between atoms: _370  and  _373
REMARK  154  A    between atoms: _373  and  _374
REMARK  155  A    between atoms: _374  and  _375
REMARK  156  A    between atoms: _375  and  _376
REMARK  157  A    between atoms: _385  and  _387
REMARK  158  A    between atoms: _387  and  _388
REMARK  159  A    between atoms: _387  and  _390
REMARK  160  A    between atoms: _390  and  _391
REMARK  161  A    between atoms: _401  and  _403
REMARK  162  A    between atoms: _403  and  _404
REMARK  163  A    between atoms: _403  and  _406
REMARK  164  A    between atoms: _406  and  _407
REMARK  165  A    between atoms: _412  and  _413
REMARK  166  A    between atoms: _415  and  _417
REMARK  167  A    between atoms: _417  and  _418
REMARK  168  A    between atoms: _417  and  _420
REMARK  169  A    between atoms: _420  and  _421
REMARK  170  A    between atoms: _421  and  _422
REMARK  171  A    between atoms: _425  and  _427
REMARK  172  A    between atoms: _427  and  _428
REMARK  173  A    between atoms: _427  and  _430
REMARK  174  A    between atoms: _433  and  _435
REMARK  175  A    between atoms: _435  and  _436
REMARK  176  A    between atoms: _435  and  _438
REMARK  177  A    between atoms: _438  and  _439
REMARK                            x       y       z     vdW  Elec       q    Type
REMARK                         _______ _______ _______ _____ _____    ______ ____
ROOT
ATOM      1  CB  HIS A   1     -30.001  89.834  23.712  0.00  0.00    +0.072 C 
ENDROOT
BRANCH   1   2
ATOM      2  CG  HIS A   1     -29.028  90.449  22.758  0.00  0.00    +0.082 A 
ATOM      3  CD2 HIS A   1     -27.954  91.241  22.980  0.00  0.00    +0.115 A 
ATOM      4  NE2 HIS A   1     -27.394  91.519  21.756  0.00  0.00    -0.221 NA
ATOM      5  CE1 HIS A   1     -28.084  90.900  20.815  0.00  0.00    +0.199 A 
ATOM      6  ND1 HIS A   1     -29.068  90.233  21.395  0.00  0.00    -0.227 NA
ENDBRANCH   1   2
BRANCH   1   7
ATOM      7  CA  HIS A   1     -29.446  88.615  24.459  0.00  0.00    +0.139 C 
BRANCH   7   8
ATOM      8  N   HIS A   1     -29.629  87.398  23.665  0.00  0.00    -0.239 NA
ATOM      9  H   HIS A   1     -30.449  87.333  23.029  0.00  0.00    +0.142 HD
ENDBRANCH   7   8
BRANCH   7  10
ATOM     10  C   HIS A   1     -30.054  88.520  25.885  0.00  0.00    +0.224 C 
ATOM     11  O   HIS A   1     -30.116  89.522  26.615  0.00  0.00    -0.287 OA
ENDBRANCH   7  10
ENDBRANCH   1   7
TORSDOF 4
REMARK  Name = ../refined-set-2016/4cpy/4cpy_pocket.pdb
REMARK  177 active torsions:
REMARK  status: ('A' for Active; 'I' for Inactive)
REMARK    1  A    between atoms: _1  and  _3
REMARK    2  A    between atoms: _3  and  _4
REMARK    3  A    between atoms: _3  and  _6
REMARK    4  A    between atoms: _6  and  _7
REMARK    5  A    between atoms: _7  and  _8
REMARK    6  A    between atoms: _8  and  _9
REMARK    7  A    between atoms: _18  and  _20
REMARK    8  A    between atoms: _20  and  _21
REMARK    9  A    between atoms: _20  and  _23
REMARK   10  A    between atoms: _23  and  _24
REMARK   11  A    between atoms: _24  and  _25
REMARK   12  A    between atoms: _28  and  _30
REMARK   13  A    between atoms: _30  and  _31
REMARK   14  A    between atoms: _30  and  _33
REMARK   15  A    between atoms: _33  and  _34
REMARK   16  A    between atoms: _37  and  _39
REMARK   17  A    between atoms: _39  and  _40
REMARK   18  A    between atoms: _39  and  _42
REMARK   19  A    between atoms: _42  and  _43
REMARK   20  A    between atoms: _48  and  _50
REMARK   21  A    between atoms: _50  and  _51
REMARK   22  A    between atoms: _50  and  _53
REMARK   23  A    between atoms: _53  and  _54
REMARK   24  A    between atoms: _54  and  _55
REMARK   25  A    between atoms: _55  and  _56
REMARK   26  A    between atoms: _65  and  _67
REMARK   27  A    between atoms: _67  and  _68
REMARK   28  A    between atoms: _70  and  _72
REMARK   29  A    between atoms: _72  and  _73
REMARK   30  A    between atoms: _72  and  _75
REMARK   31  A    between atoms: _75  and  _76
REMARK   32  A    between atoms: _79  and  _81
REMARK   33  A    between atoms: _81  and  _82
REMARK   34  A    between atoms: _81  and  _84
REMARK   35  A    between atoms: _84  and  _85
REMARK   36  A    between atoms: _85  and  _86
REMARK   37  A    between atoms: _86  and  _87
REMARK   38  A    between atoms: _96  and  _98
REMARK   39  A    between atoms: _98  and  _99
REMARK   40  A    between atoms: _98  and  _101
REMARK   41  A    between atoms: _101  and  _102
REMARK   42  A    between atoms: _107  and  _109
REMARK   43  A    between atoms: _109  and  _110
REMARK   44  A    between atoms: _109  and  _112
REMARK   45  A    between atoms: _112  and  _113
REMARK   46  A    between atoms: _113  and  _114
REMARK   47  A    between atoms: _114  and  _115
REMARK   48  A    between atoms: _124  and  _126
REMARK   49  A    between atoms: _126  and  _127
REMARK   50  A    between atoms: _126  and  _129
REMARK   51  A    between atoms: _129  and  _130
REMARK   52  A    between atoms: _140  and  _142
REMARK   53  A    between atoms: _142  and  _143
REMARK   54  A    between atoms: _142  and  _145
REMARK   55  A    between atoms: _145  and  _146
REMARK   56  A    between atoms: _148  and  _150
REMARK   57  A    between atoms: _150  and  _151
REMARK   58  A    between atoms: _153  and  _155
REMARK   59  A    between atoms: _155  and  _156
REMARK   60  A    between atoms: _155  and  _158
REMARK   61  A    between atoms: _161  and  _163
REMARK   62  A    between atoms: _163  and  _164
REMARK   63  A    between atoms: _163  and  _166
REMARK   64  A    between atoms: _166  and  _167
REMARK   65  A    between atoms: _170  and  _172
REMARK   66  A    between atoms: _172  and  _173
REMARK   67  A    between atoms: _172  and  _175
REMARK   68  A    between atoms: _175  and  _176
REMARK   69  A    between atoms: _179  and  _181
REMARK   70  A    between atoms: _181  and  _182
REMARK   71  A    between atoms: _181  and  _184
REMARK   72  A    between atoms: _184  and  _185
REMARK   73  A    between atoms: _188  and  _190
REMARK   74  A    between atoms: _190  and  _191
REMARK   75  A    between atoms: _190  and  _193
REMARK   76  A    between atoms: _193  and  _194
REMARK   77  A    between atoms: _194  and  _195
REMARK   78  A    between atoms: _195  and  _196
REMARK   79  A    between atoms: _205  and  _207
REMARK   80  A    between atoms: _207  and  _208
REMARK   81  A    between atoms: _207  and  _210
REMARK   82  A    between atoms: _210  and  _211
REMARK   83  A    between atoms: _214  and  _216
REMARK   84  A    between atoms: _216  and  _217
REMARK   85  A    between atoms: _216  and  _219
REMARK   86  A    between atoms: _219  and  _220
REMARK   87  A    between atoms: _220  and  _221
REMARK   88  A    between atoms: _224  and  _226
REMARK   89  A    between atoms: _226  and  _227
REMARK   90  A    between atoms: _226  and  _229
REMARK   91  A    between atoms: _229  and  _230
REMARK   92  A    between atoms: _233  and  _235
REMARK   93  A    between atoms: _235  and  _236
REMARK   94  A    between atoms: _238  and  _240
REMARK   95  A    between atoms: _240  and  _241
REMARK   96  A    between atoms: _240  and  _243
REMARK   97  A    between atoms: _243  and  _244
REMARK   98  A    between atoms: _246  and  _248
REMARK   99  A    between atoms: _248  and  _249
REMARK  100  A    between atoms: _252  and  _254
REMARK  101  A    between atoms: _254  and  _255
REMARK  102  A    between atoms: _254  and  _257
REMARK  103  A    between atoms: _257  and  _258
REMARK  104  A    between atoms: _260  and  _262
REMARK  105  A    between atoms: _262  and  _263
REMARK  106  A    between atoms: _262  and  _265
REMARK  107  A    between atoms: _265  and  _266
REMARK  108  A    between atoms: _268  and  _270
REMARK  109  A    between atoms: _270  and  _271
REMARK  110  A    between atoms: _270  and  _273
REMARK  111  A    between atoms: _273  and  _274
REMARK  112  A    between atoms: _279  and  _281
REMARK  113  A    between atoms: _281  and  _282
REMARK  114  A    between atoms: _281  and  _284
REMARK  115  A    between atoms: _284  and  _285
REMARK  116  A    between atoms: _285  and  _286
REMARK  117  A    between atoms: _289  and  _291
REMARK  118  A    between atoms: _291  and  _292
REMARK  119  A    between atoms: _291  and  _294
REMARK  120  A    between atoms: _294  and  _295
REMARK  121  A    between atoms: _295  and  _296
REMARK  122  A    between atoms: _299  and  _301
REMARK  123  A    between atoms: _301  and  _302
REMARK  124  A    between atoms: _301  and  _304
REMARK  125  A    between atoms: _304  and  _305
REMARK  126  A    between atoms: _305  and  _306
REMARK  127  A    between atoms: _306  and  _307
REMARK  128  A    between atoms: _316  and  _318
REMARK  129  A    between atoms: _318  and  _319
REMARK  130  A    between atoms: _318  and  _321
REMARK  131  A    between atoms: _321  and  _322
REMARK  132  A    between atoms: _327  and  _329
REMARK  133  A    between atoms: _329  and  _330
REMARK  134  A    between atoms: _329  and  _332
REMARK  135  A    between atoms: _332  and  _333
REMARK  136  A    between atoms: _336  and  _338
REMARK  137  A    between atoms: _338  and  _339
REMARK  138  A    between atoms: _341  and  _343
REMARK  139  A    between atoms: _343  and  _344
REMARK  140  A    between atoms: _346  and  _348
REMARK  141  A    between atoms: _348  and  _349
REMARK  142  A    between atoms: _348  and  _351
REMARK  143  A    between atoms: _351  and  _352
REMARK  144  A    between atoms: _355  and  _357
REMARK  145  A    between atoms: _357  and  _358
REMARK  146  A    between atoms: _357  and  _360
REMARK  147  A    between atoms: _360  and  _361
REMARK  148  A    between atoms: _361  and  _362
REMARK  149  A    between atoms: _362  and  _363
REMARK  150  A    between atoms: _363  and  _364
REMARK  151  A    between atoms: _368  and  _370
REMARK  152  A    between atoms: _370  and  _371
REMARK  153  A    between atoms: _370  and  _373
REMARK  154  A    between atoms: _373  and  _374
REMARK  155  A    between atoms: _374  and  _375
REMARK  156  A    between atoms: _375  and  _376
REMARK  157  A    between atoms: _385  and  _387
REMARK  158  A    between atoms: _387  and  _388
REMARK  159  A    between atoms: _387  and  _390
REMARK  160  A    between atoms: _390  and  _391
REMARK  161  A    between atoms: _401  and  _403
REMARK  162  A    between atoms: _403  and  _404
REMARK  163  A    between atoms: _403  and  _406
REMARK  164  A    between atoms: _406  and  _407
REMARK  165  A    between atoms: _412  and  _413
REMARK  166  A    between atoms: _415  and  _417
REMARK  167  A    between atoms: _417  and  _418
REMARK  168  A    between atoms: _417  and  _420
REMARK  169  A    between atoms: _420  and  _421
REMARK  170  A    between atoms: _421  and  _422
REMARK  171  A    between atoms: _425  and  _427
REMARK  172  A    between atoms: _427  and  _428
REMARK  173  A    between atoms: _427  and  _430
REMARK  174  A    between atoms: _433  and  _435
REMARK  175  A    between atoms: _435  and  _436
REMARK  176  A    between atoms: _435  and  _438
REMARK  177  A    between atoms: _438  and  _439
REMARK                            x       y       z     vdW  Elec       q    Type
REMARK                         _______ _______ _______ _____ _____    ______ ____
ROOT
ATOM      1  C   ASP A   3     -22.784  91.820  20.440  0.00  0.00    +0.241 C 
ATOM      2  N   ARG A   4     -22.124  92.661  21.212  0.00  0.00    -0.297 N 
ATOM      3  H   ARG A   4     -22.120  93.676  20.986  0.00  0.00    +0.150 HD
ATOM      4  O   ASP A   3     -22.965  90.645  20.753  0.00  0.00    -0.273 OA
ENDROOT
BRANCH   2   5
ATOM      5  CA  ARG A   4     -21.402  92.177  22.378  0.00  0.00    +0.149 C 
BRANCH   5   6
ATOM      6  C   ARG A   4     -21.850  92.908  23.629  0.00  0.00    +0.241 C 
ATOM      7  N   ASN A   5     -22.093  92.132  24.679  0.00  0.00    -0.298 N 
ATOM      8  H   ASN A   5     -22.050  91.100  24.559  0.00  0.00    +0.150 HD
ATOM      9  O   ARG A   4     -21.986  94.133  23.645  0.00  0.00    -0.273 OA
BRANCH   7  10
ATOM     10  CA  ASN A   5     -22.415  92.669  25.983  0.00  0.00    +0.146 C 
BRANCH  10  11
ATOM     11  C   ASN A   5     -22.232  91.579  27.053  0.00  0.00    +0.227 C 
ATOM     12  O   ASN A   5     -21.925  90.435  26.721  0.00  0.00    -0.286 OA
ENDBRANCH  10  11
BRANCH  10  13
ATOM     13  CB  ASN A   5     -23.837  93.242  25.998  0.00  0.00    +0.112 C 
BRANCH  13  14
ATOM     14  CG  ASN A   5     -24.894  92.191  25.709  0.00  0.00    +0.222 C 
ATOM     15  OD1 ASN A   5     -25.040  91.204  26.446  0.00  0.00    -0.275 OA
ATOM     16  ND2 ASN A   5     -25.646  92.396  24.630  0.00  0.00    -0.329 N 
ATOM     17 HD21 ASN A   5     -26.390  91.715  24.378  0.00  0.00    +0.145 HD
ATOM     18 HD22 ASN A   5     -25.490  93.238  24.039  0.00  0.00    +0.145 HD
ENDBRANCH  13  14
ENDBRANCH  10  13
ENDBRANCH   7  10
ENDBRANCH   5   6
BRANCH   5  19
ATOM     19  CB  ARG A   4     -19.895  92.295  22.153  0.00  0.00    +0.033 C 
BRANCH  19  20
ATOM     20  CG  ARG A   4     -19.421  91.518  20.923  0.00  0.00    +0.045 C 
BRANCH  20  21
ATOM     21  CD  ARG A   4     -17.924  91.684  20.673  0.00  0.00    +0.174 C 
BRANCH  21  22
ATOM     22  NE  ARG A   4     -17.525  93.084  20.485  0.00  0.00    -0.265 N 
ATOM     23  HE  ARG A   4     -17.087  93.572  21.293  0.00  0.00    +0.259 HD
ATOM     24  CZ  ARG A   4     -17.682  93.780  19.353  0.00  0.00    +0.342 C 
ATOM     25  NH2 ARG A   4     -17.273  95.034  19.297  0.00  0.00    -0.292 N 
ATOM     26 HH21 ARG A   4     -16.832  95.475  20.129  0.00  0.00    +0.255 HD
ATOM     27 HH22 ARG A   4     -17.392  95.581  18.421  0.00  0.00    +0.255 HD
ATOM     28  NH1 ARG A   4     -18.260  93.252  18.290  0.00  0.00    -0.292 N 
ATOM     29 HH11 ARG A   4     -18.606  92.272  18.319  0.00  0.00    +0.255 HD
ATOM     30 HH12 ARG A   4     -18.369  93.816  17.423  0.00  0.00    +0.255 HD
ENDBRANCH  21  22
ENDBRANCH  20  21
ENDBRANCH  19  20
ENDBRANCH   5  19
ENDBRANCH   2   5
BRANCH   1  31
ATOM     31  CA  ASP A   3     -23.275  92.361  19.106  0.00  0.00    +0.160 C 
BRANCH  31  34
ATOM     32  C   GLY A   2     -25.277  93.747  19.280  0.00  0.00    +0.243 C 
ATOM     33  O   GLY A   2     -26.004  92.751  19.381  0.00  0.00    -0.273 OA
ATOM     34  N   ASP A   3     -23.954  93.663  19.164  0.00  0.00    -0.296 N 
ATOM     35  H   ASP A   3     -23.390  94.535  19.113  0.00  0.00    +0.150 HD
BRANCH  32  36
ATOM     36  CA  GLY A   2     -25.868  95.144  19.257  0.00  0.00    +0.176 C 
BRANCH  36  38
ATOM     37  C   ARG A   1     -27.867  95.338  17.845  0.00  0.00    +0.238 C 
ATOM     38  N   GLY A   2     -27.313  95.098  19.033  0.00  0.00    -0.296 N 
ATOM     39  H   GLY A   2     -27.934  94.868  19.835  0.00  0.00    +0.150 HD
ATOM     40  O   ARG A   1     -27.212  95.719  16.868  0.00  0.00    -0.274 OA
BRANCH  37  41
ATOM     41  CA  ARG A   1     -29.381  95.129  17.735  0.00  0.00    +0.145 C 
BRANCH  41  42
ATOM     42  N   ARG A   1     -30.003  94.967  19.047  0.00  0.00    -0.238 NA
ATOM     43  H   ARG A   1     -30.274  95.811  19.591  0.00  0.00    +0.142 HD
ENDBRANCH  41  42
BRANCH  41  44
ATOM     44  CB  ARG A   1     -30.017  96.303  17.000  0.00  0.00    +0.030 C 
BRANCH  44  45
ATOM     45  CG  ARG A   1     -29.844  96.223  15.493  0.00  0.00    +0.045 C 
BRANCH  45  46
ATOM     46  CD  ARG A   1     -30.764  97.210  14.793  0.00  0.00    +0.174 C 
BRANCH  46  47
ATOM     47  NE  ARG A   1     -30.755  97.027  13.345  0.00  0.00    -0.265 N 
ATOM     48  HE  ARG A   1     -31.589  96.581  12.913  0.00  0.00    +0.259 HD
ATOM     49  CZ  ARG A   1     -29.760  97.387  12.532  0.00  0.00    +0.342 C 
ATOM     50  NH2 ARG A   1     -28.649  97.958  13.001  0.00  0.00    -0.292 N 
ATOM     51 HH21 ARG A   1     -28.544  98.132  14.021  0.00  0.00    +0.255 HD
ATOM     52 HH22 ARG A   1     -27.888  98.229  12.347  0.00  0.00    +0.255 HD
ATOM     53  NH1 ARG A   1     -29.869  97.165  11.222  0.00  0.00    -0.292 N 
ATOM     54 HH11 ARG A   1     -30.725  96.714  10.840  0.00  0.00    +0.255 HD
ATOM     55 HH12 ARG A   1     -29.098  97.443  10.582  0.00  0.00    +0.255 HD
ENDBRANCH  46  47
ENDBRANCH  45  46
ENDBRANCH  44  45
ENDBRANCH  41  44
ENDBRANCH  37  41
ENDBRANCH  36  38
ENDBRANCH  32  36
ENDBRANCH  31  34
BRANCH  31  56
ATOM     56  CB  ASP A   3     -22.087  92.423  18.143  0.00  0.00    +0.143 C 
BRANCH  56  57
ATOM     57  CG  ASP A   3     -22.527  92.490  16.694  0.00  0.00    +0.367 C 
ATOM     58  OD2 ASP A   3     -23.416  91.710  16.327  0.00  0.00    -0.246 OA
ATOM     59  OD1 ASP A   3     -21.990  93.316  15.941  0.00  0.00    -0.246 OA
ENDBRANCH  56  57
ENDBRANCH  31  56
ENDBRANCH   1  31
TORSDOF 22
REMARK  Name = ../refined-set-2016/4cpy/4cpy_pocket.pdb
REMARK  177 active torsions:
REMARK  status: ('A' for Active; 'I' for Inactive)
REMARK    1  A    between atoms: _1  and  _3
REMARK    2  A    between atoms: _3  and  _4
REMARK    3  A    between atoms: _3  and  _6
REMARK    4  A    between atoms: _6  and  _7
REMARK    5  A    between atoms: _7  and  _8
REMARK    6  A    between atoms: _8  and  _9
REMARK    7  A    between atoms: _18  and  _20
REMARK    8  A    between atoms: _20  and  _21
REMARK    9  A    between atoms: _20  and  _23
REMARK   10  A    between atoms: _23  and  _24
REMARK   11  A    between atoms: _24  and  _25
REMARK   12  A    between atoms: _28  and  _30
REMARK   13  A    between atoms: _30  and  _31
REMARK   14  A    between atoms: _30  and  _33
REMARK   15  A    between atoms: _33  and  _34
REMARK   16  A    between atoms: _37  and  _39
REMARK   17  A    between atoms: _39  and  _40
REMARK   18  A    between atoms: _39  and  _42
REMARK   19  A    between atoms: _42  and  _43
REMARK   20  A    between atoms: _48  and  _50
REMARK   21  A    between atoms: _50  and  _51
REMARK   22  A    between atoms: _50  and  _53
REMARK   23  A    between atoms: _53  and  _54
REMARK   24  A    between atoms: _54  and  _55
REMARK   25  A    between atoms: _55  and  _56
REMARK   26  A    between atoms: _65  and  _67
REMARK   27  A    between atoms: _67  and  _68
REMARK   28  A    between atoms: _70  and  _72
REMARK   29  A    between atoms: _72  and  _73
REMARK   30  A    between atoms: _72  and  _75
REMARK   31  A    between atoms: _75  and  _76
REMARK   32  A    between atoms: _79  and  _81
REMARK   33  A    between atoms: _81  and  _82
REMARK   34  A    between atoms: _81  and  _84
REMARK   35  A    between atoms: _84  and  _85
REMARK   36  A    between atoms: _85  and  _86
REMARK   37  A    between atoms: _86  and  _87
REMARK   38  A    between atoms: _96  and  _98
REMARK   39  A    between atoms: _98  and  _99
REMARK   40  A    between atoms: _98  and  _101
REMARK   41  A    between atoms: _101  and  _102
REMARK   42  A    between atoms: _107  and  _109
REMARK   43  A    between atoms: _109  and  _110
REMARK   44  A    between atoms: _109  and  _112
REMARK   45  A    between atoms: _112  and  _113
REMARK   46  A    between atoms: _113  and  _114
REMARK   47  A    between atoms: _114  and  _115
REMARK   48  A    between atoms: _124  and  _126
REMARK   49  A    between atoms: _126  and  _127
REMARK   50  A    between atoms: _126  and  _129
REMARK   51  A    between atoms: _129  and  _130
REMARK   52  A    between atoms: _140  and  _142
REMARK   53  A    between atoms: _142  and  _143
REMARK   54  A    between atoms: _142  and  _145
REMARK   55  A    between atoms: _145  and  _146
REMARK   56  A    between atoms: _148  and  _150
REMARK   57  A    between atoms: _150  and  _151
REMARK   58  A    between atoms: _153  and  _155
REMARK   59  A    between atoms: _155  and  _156
REMARK   60  A    between atoms: _155  and  _158
REMARK   61  A    between atoms: _161  and  _163
REMARK   62  A    between atoms: _163  and  _164
REMARK   63  A    between atoms: _163  and  _166
REMARK   64  A    between atoms: _166  and  _167
REMARK   65  A    between atoms: _170  and  _172
REMARK   66  A    between atoms: _172  and  _173
REMARK   67  A    between atoms: _172  and  _175
REMARK   68  A    between atoms: _175  and  _176
REMARK   69  A    between atoms: _179  and  _181
REMARK   70  A    between atoms: _181  and  _182
REMARK   71  A    between atoms: _181  and  _184
REMARK   72  A    between atoms: _184  and  _185
REMARK   73  A    between atoms: _188  and  _190
REMARK   74  A    between atoms: _190  and  _191
REMARK   75  A    between atoms: _190  and  _193
REMARK   76  A    between atoms: _193  and  _194
REMARK   77  A    between atoms: _194  and  _195
REMARK   78  A    between atoms: _195  and  _196
REMARK   79  A    between atoms: _205  and  _207
REMARK   80  A    between atoms: _207  and  _208
REMARK   81  A    between atoms: _207  and  _210
REMARK   82  A    between atoms: _210  and  _211
REMARK   83  A    between atoms: _214  and  _216
REMARK   84  A    between atoms: _216  and  _217
REMARK   85  A    between atoms: _216  and  _219
REMARK   86  A    between atoms: _219  and  _220
REMARK   87  A    between atoms: _220  and  _221
REMARK   88  A    between atoms: _224  and  _226
REMARK   89  A    between atoms: _226  and  _227
REMARK   90  A    between atoms: _226  and  _229
REMARK   91  A    between atoms: _229  and  _230
REMARK   92  A    between atoms: _233  and  _235
REMARK   93  A    between atoms: _235  and  _236
REMARK   94  A    between atoms: _238  and  _240
REMARK   95  A    between atoms: _240  and  _241
REMARK   96  A    between atoms: _240  and  _243
REMARK   97  A    between atoms: _243  and  _244
REMARK   98  A    between atoms: _246  and  _248
REMARK   99  A    between atoms: _248  and  _249
REMARK  100  A    between atoms: _252  and  _254
REMARK  101  A    between atoms: _254  and  _255
REMARK  102  A    between atoms: _254  and  _257
REMARK  103  A    between atoms: _257  and  _258
REMARK  104  A    between atoms: _260  and  _262
REMARK  105  A    between atoms: _262  and  _263
REMARK  106  A    between atoms: _262  and  _265
REMARK  107  A    between atoms: _265  and  _266
REMARK  108  A    between atoms: _268  and  _270
REMARK  109  A    between atoms: _270  and  _271
REMARK  110  A    between atoms: _270  and  _273
REMARK  111  A    between atoms: _273  and  _274
REMARK  112  A    between atoms: _279  and  _281
REMARK  113  A    between atoms: _281  and  _282
REMARK  114  A    between atoms: _281  and  _284
REMARK  115  A    between atoms: _284  and  _285
REMARK  116  A    between atoms: _285  and  _286
REMARK  117  A    between atoms: _289  and  _291
REMARK  118  A    between atoms: _291  and  _292
REMARK  119  A    between atoms: _291  and  _294
REMARK  120  A    between atoms: _294  and  _295
REMARK  121  A    between atoms: _295  and  _296
REMARK  122  A    between atoms: _299  and  _301
REMARK  123  A    between atoms: _301  and  _302
REMARK  124  A    between atoms: _301  and  _304
REMARK  125  A    between atoms: _304  and  _305
REMARK  126  A    between atoms: _305  and  _306
REMARK  127  A    between atoms: _306  and  _307
REMARK  128  A    between atoms: _316  and  _318
REMARK  129  A    between atoms: _318  and  _319
REMARK  130  A    between atoms: _318  and  _321
REMARK  131  A    between atoms: _321  and  _322
REMARK  132  A    between atoms: _327  and  _329
REMARK  133  A    between atoms: _329  and  _330
REMARK  134  A    between atoms: _329  and  _332
REMARK  135  A    between atoms: _332  and  _333
REMARK  136  A    between atoms: _336  and  _338
REMARK  137  A    between atoms: _338  and  _339
REMARK  138  A    between atoms: _341  and  _343
REMARK  139  A    between atoms: _343  and  _344
REMARK  140  A    between atoms: _346  and  _348
REMARK  141  A    between atoms: _348  and  _349
REMARK  142  A    between atoms: _348  and  _351
REMARK  143  A    between atoms: _351  and  _352
REMARK  144  A    between atoms: _355  and  _357
REMARK  145  A    between atoms: _357  and  _358
REMARK  146  A    between atoms: _357  and  _360
REMARK  147  A    between atoms: _360  and  _361
REMARK  148  A    between atoms: _361  and  _362
REMARK  149  A    between atoms: _362  and  _363
REMARK  150  A    between atoms: _363  and  _364
REMARK  151  A    between atoms: _368  and  _370
REMARK  152  A    between atoms: _370  and  _371
REMARK  153  A    between atoms: _370  and  _373
REMARK  154  A    between atoms: _373  and  _374
REMARK  155  A    between atoms: _374  and  _375
REMARK  156  A    between atoms: _375  and  _376
REMARK  157  A    between atoms: _385  and  _387
REMARK  158  A    between atoms: _387  and  _388
REMARK  159  A    between atoms: _387  and  _390
REMARK  160  A    between atoms: _390  and  _391
REMARK  161  A    between atoms: _401  and  _403
REMARK  162  A    between atoms: _403  and  _404
REMARK  163  A    between atoms: _403  and  _406
REMARK  164  A    between atoms: _406  and  _407
REMARK  165  A    between atoms: _412  and  _413
REMARK  166  A    between atoms: _415  and  _417
REMARK  167  A    between atoms: _417  and  _418
REMARK  168  A    between atoms: _417  and  _420
REMARK  169  A    between atoms: _420  and  _421
REMARK  170  A    between atoms: _421  and  _422
REMARK  171  A    between atoms: _425  and  _427
REMARK  172  A    between atoms: _427  and  _428
REMARK  173  A    between atoms: _427  and  _430
REMARK  174  A    between atoms: _433  and  _435
REMARK  175  A    between atoms: _435  and  _436
REMARK  176  A    between atoms: _435  and  _438
REMARK  177  A    between atoms: _438  and  _439
REMARK                            x       y       z     vdW  Elec       q    Type
REMARK                         _______ _______ _______ _____ _____    ______ ____
ROOT
ATOM      1  NE  ARG A   1     -25.943  88.228  21.668  0.00  0.00    -0.265 N 
ATOM      2  HE  ARG A   1     -26.675  87.672  22.155  0.00  0.00    +0.259 HD
ATOM      3  CZ  ARG A   1     -25.872  88.187  20.339  0.00  0.00    +0.342 C 
ATOM      4  NH2 ARG A   1     -24.932  88.892  19.713  0.00  0.00    -0.292 N 
ATOM      5 HH21 ARG A   1     -24.262  89.468  20.262  0.00  0.00    +0.255 HD
ATOM      6 HH22 ARG A   1     -24.868  88.867  18.675  0.00  0.00    +0.255 HD
ATOM      7  NH1 ARG A   1     -26.707  87.457  19.619  0.00  0.00    -0.292 N 
ATOM      8 HH11 ARG A   1     -27.444  86.894  20.090  0.00  0.00    +0.255 HD
ATOM      9 HH12 ARG A   1     -26.626  87.445  18.582  0.00  0.00    +0.255 HD
ENDROOT
BRANCH   1  10
ATOM     10  CD  ARG A   1     -25.015  89.038  22.461  0.00  0.00    +0.174 C 
BRANCH  10  11
ATOM     11  CG  ARG A   1     -25.144  88.942  23.954  0.00  0.00    +0.045 C 
BRANCH  11  12
ATOM     12  CB  ARG A   1     -24.447  87.726  24.532  0.00  0.00    +0.029 C 
BRANCH  12  13
ATOM     13  CA  ARG A   1     -25.123  87.287  25.833  0.00  0.00    +0.133 C 
BRANCH  13  14
ATOM     14  N   ARG A   1     -24.962  88.285  26.881  0.00  0.00    -0.239 NA
ATOM     15  H   ARG A   1     -24.351  89.113  26.730  0.00  0.00    +0.142 HD
ENDBRANCH  13  14
BRANCH  13  16
ATOM     16  C   ARG A   1     -24.646  85.906  26.298  0.00  0.00    +0.224 C 
ATOM     17  O   ARG A   1     -23.638  85.791  26.985  0.00  0.00    -0.287 OA
ENDBRANCH  13  16
ENDBRANCH  12  13
ENDBRANCH  11  12
ENDBRANCH  10  11
ENDBRANCH   1  10
TORSDOF 6
REMARK  Name = ../refined-set-2016/4cpy/4cpy_pocket.pdb
REMARK  177 active torsions:
REMARK  status: ('A' for Active; 'I' for Inactive)
REMARK    1  A    between atoms: _1  and  _3
REMARK    2  A    between atoms: _3  and  _4
REMARK    3  A    between atoms: _3  and  _6
REMARK    4  A    between atoms: _6  and  _7
REMARK    5  A    between atoms: _7  and  _8
REMARK    6  A    between atoms: _8  and  _9
REMARK    7  A    between atoms: _18  and  _20
REMARK    8  A    between atoms: _20  and  _21
REMARK    9  A    between atoms: _20  and  _23
REMARK   10  A    between atoms: _23  and  _24
REMARK   11  A    between atoms: _24  and  _25
REMARK   12  A    between atoms: _28  and  _30
REMARK   13  A    between atoms: _30  and  _31
REMARK   14  A    between atoms: _30  and  _33
REMARK   15  A    between atoms: _33  and  _34
REMARK   16  A    between atoms: _37  and  _39
REMARK   17  A    between atoms: _39  and  _40
REMARK   18  A    between atoms: _39  and  _42
REMARK   19  A    between atoms: _42  and  _43
REMARK   20  A    between atoms: _48  and  _50
REMARK   21  A    between atoms: _50  and  _51
REMARK   22  A    between atoms: _50  and  _53
REMARK   23  A    between atoms: _53  and  _54
REMARK   24  A    between atoms: _54  and  _55
REMARK   25  A    between atoms: _55  and  _56
REMARK   26  A    between atoms: _65  and  _67
REMARK   27  A    between atoms: _67  and  _68
REMARK   28  A    between atoms: _70  and  _72
REMARK   29  A    between atoms: _72  and  _73
REMARK   30  A    between atoms: _72  and  _75
REMARK   31  A    between atoms: _75  and  _76
REMARK   32  A    between atoms: _79  and  _81
REMARK   33  A    between atoms: _81  and  _82
REMARK   34  A    between atoms: _81  and  _84
REMARK   35  A    between atoms: _84  and  _85
REMARK   36  A    between atoms: _85  and  _86
REMARK   37  A    between atoms: _86  and  _87
REMARK   38  A    between atoms: _96  and  _98
REMARK   39  A    between atoms: _98  and  _99
REMARK   40  A    between atoms: _98  and  _101
REMARK   41  A    between atoms: _101  and  _102
REMARK   42  A    between atoms: _107  and  _109
REMARK   43  A    between atoms: _109  and  _110
REMARK   44  A    between atoms: _109  and  _112
REMARK   45  A    between atoms: _112  and  _113
REMARK   46  A    between atoms: _113  and  _114
REMARK   47  A    between atoms: _114  and  _115
REMARK   48  A    between atoms: _124  and  _126
REMARK   49  A    between atoms: _126  and  _127
REMARK   50  A    between atoms: _126  and  _129
REMARK   51  A    between atoms: _129  and  _130
REMARK   52  A    between atoms: _140  and  _142
REMARK   53  A    between atoms: _142  and  _143
REMARK   54  A    between atoms: _142  and  _145
REMARK   55  A    between atoms: _145  and  _146
REMARK   56  A    between atoms: _148  and  _150
REMARK   57  A    between atoms: _150  and  _151
REMARK   58  A    between atoms: _153  and  _155
REMARK   59  A    between atoms: _155  and  _156
REMARK   60  A    between atoms: _155  and  _158
REMARK   61  A    between atoms: _161  and  _163
REMARK   62  A    between atoms: _163  and  _164
REMARK   63  A    between atoms: _163  and  _166
REMARK   64  A    between atoms: _166  and  _167
REMARK   65  A    between atoms: _170  and  _172
REMARK   66  A    between atoms: _172  and  _173
REMARK   67  A    between atoms: _172  and  _175
REMARK   68  A    between atoms: _175  and  _176
REMARK   69  A    between atoms: _179  and  _181
REMARK   70  A    between atoms: _181  and  _182
REMARK   71  A    between atoms: _181  and  _184
REMARK   72  A    between atoms: _184  and  _185
REMARK   73  A    between atoms: _188  and  _190
REMARK   74  A    between atoms: _190  and  _191
REMARK   75  A    between atoms: _190  and  _193
REMARK   76  A    between atoms: _193  and  _194
REMARK   77  A    between atoms: _194  and  _195
REMARK   78  A    between atoms: _195  and  _196
REMARK   79  A    between atoms: _205  and  _207
REMARK   80  A    between atoms: _207  and  _208
REMARK   81  A    between atoms: _207  and  _210
REMARK   82  A    between atoms: _210  and  _211
REMARK   83  A    between atoms: _214  and  _216
REMARK   84  A    between atoms: _216  and  _217
REMARK   85  A    between atoms: _216  and  _219
REMARK   86  A    between atoms: _219  and  _220
REMARK   87  A    between atoms: _220  and  _221
REMARK   88  A    between atoms: _224  and  _226
REMARK   89  A    between atoms: _226  and  _227
REMARK   90  A    between atoms: _226  and  _229
REMARK   91  A    between atoms: _229  and  _230
REMARK   92  A    between atoms: _233  and  _235
REMARK   93  A    between atoms: _235  and  _236
REMARK   94  A    between atoms: _238  and  _240
REMARK   95  A    between atoms: _240  and  _241
REMARK   96  A    between atoms: _240  and  _243
REMARK   97  A    between atoms: _243  and  _244
REMARK   98  A    between atoms: _246  and  _248
REMARK   99  A    between atoms: _248  and  _249
REMARK  100  A    between atoms: _252  and  _254
REMARK  101  A    between atoms: _254  and  _255
REMARK  102  A    between atoms: _254  and  _257
REMARK  103  A    between atoms: _257  and  _258
REMARK  104  A    between atoms: _260  and  _262
REMARK  105  A    between atoms: _262  and  _263
REMARK  106  A    between atoms: _262  and  _265
REMARK  107  A    between atoms: _265  and  _266
REMARK  108  A    between atoms: _268  and  _270
REMARK  109  A    between atoms: _270  and  _271
REMARK  110  A    between atoms: _270  and  _273
REMARK  111  A    between atoms: _273  and  _274
REMARK  112  A    between atoms: _279  and  _281
REMARK  113  A    between atoms: _281  and  _282
REMARK  114  A    between atoms: _281  and  _284
REMARK  115  A    between atoms: _284  and  _285
REMARK  116  A    between atoms: _285  and  _286
REMARK  117  A    between atoms: _289  and  _291
REMARK  118  A    between atoms: _291  and  _292
REMARK  119  A    between atoms: _291  and  _294
REMARK  120  A    between atoms: _294  and  _295
REMARK  121  A    between atoms: _295  and  _296
REMARK  122  A    between atoms: _299  and  _301
REMARK  123  A    between atoms: _301  and  _302
REMARK  124  A    between atoms: _301  and  _304
REMARK  125  A    between atoms: _304  and  _305
REMARK  126  A    between atoms: _305  and  _306
REMARK  127  A    between atoms: _306  and  _307
REMARK  128  A    between atoms: _316  and  _318
REMARK  129  A    between atoms: _318  and  _319
REMARK  130  A    between atoms: _318  and  _321
REMARK  131  A    between atoms: _321  and  _322
REMARK  132  A    between atoms: _327  and  _329
REMARK  133  A    between atoms: _329  and  _330
REMARK  134  A    between atoms: _329  and  _332
REMARK  135  A    between atoms: _332  and  _333
REMARK  136  A    between atoms: _336  and  _338
REMARK  137  A    between atoms: _338  and  _339
REMARK  138  A    between atoms: _341  and  _343
REMARK  139  A    between atoms: _343  and  _344
REMARK  140  A    between atoms: _346  and  _348
REMARK  141  A    between atoms: _348  and  _349
REMARK  142  A    between atoms: _348  and  _351
REMARK  143  A    between atoms: _351  and  _352
REMARK  144  A    between atoms: _355  and  _357
REMARK  145  A    between atoms: _357  and  _358
REMARK  146  A    between atoms: _357  and  _360
REMARK  147  A    between atoms: _360  and  _361
REMARK  148  A    between atoms: _361  and  _362
REMARK  149  A    between atoms: _362  and  _363
REMARK  150  A    between atoms: _363  and  _364
REMARK  151  A    between atoms: _368  and  _370
REMARK  152  A    between atoms: _370  and  _371
REMARK  153  A    between atoms: _370  and  _373
REMARK  154  A    between atoms: _373  and  _374
REMARK  155  A    between atoms: _374  and  _375
REMARK  156  A    between atoms: _375  and  _376
REMARK  157  A    between atoms: _385  and  _387
REMARK  158  A    between atoms: _387  and  _388
REMARK  159  A    between atoms: _387  and  _390
REMARK  160  A    between atoms: _390  and  _391
REMARK  161  A    between atoms: _401  and  _403
REMARK  162  A    between atoms: _403  and  _404
REMARK  163  A    between atoms: _403  and  _406
REMARK  164  A    between atoms: _406  and  _407
REMARK  165  A    between atoms: _412  and  _413
REMARK  166  A    between atoms: _415  and  _417
REMARK  167  A    between atoms: _417  and  _418
REMARK  168  A    between atoms: _417  and  _420
REMARK  169  A    between atoms: _420  and  _421
REMARK  170  A    between atoms: _421  and  _422
REMARK  171  A    between atoms: _425  and  _427
REMARK  172  A    between atoms: _427  and  _428
REMARK  173  A    between atoms: _427  and  _430
REMARK  174  A    between atoms: _433  and  _435
REMARK  175  A    between atoms: _435  and  _436
REMARK  176  A    between atoms: _435  and  _438
REMARK  177  A    between atoms: _438  and  _439
REMARK                            x       y       z     vdW  Elec       q    Type
REMARK                         _______ _______ _______ _____ _____    ______ ____
ROOT
ATOM      1  C   TRP A   1     -20.448  86.164  21.005  0.00  0.00    +0.239 C 
ATOM      2  N   SER A   2     -19.766  85.017  20.984  0.00  0.00    -0.295 N 
ATOM      3  H   SER A   2     -19.470  84.614  21.896  0.00  0.00    +0.150 HD
ATOM      4  O   TRP A   1     -20.675  86.831  19.995  0.00  0.00    -0.274 OA
ENDROOT
BRANCH   1   5
ATOM      5  CA  TRP A   1     -20.981  86.628  22.372  0.00  0.00    +0.149 C 
BRANCH   5   6
ATOM      6  N   TRP A   1     -20.494  85.801  23.478  0.00  0.00    -0.238 NA
ATOM      7  H   TRP A   1     -19.479  85.808  23.706  0.00  0.00    +0.142 HD
ENDBRANCH   5   6
BRANCH   5   8
ATOM      8  CB  TRP A   1     -20.770  88.152  22.611  0.00  0.00    +0.054 C 
BRANCH   8   9
ATOM      9  CG  TRP A   1     -19.434  88.624  23.209  0.00  0.00    -0.002 A 
ATOM     10  CD1 TRP A   1     -19.245  89.178  24.452  0.00  0.00    +0.068 A 
ATOM     11  NE1 TRP A   1     -17.910  89.500  24.631  0.00  0.00    -0.352 N 
ATOM     12  HE1 TRP A   1     -17.497  89.929  25.484  0.00  0.00    +0.166 HD
ATOM     13  CE2 TRP A   1     -17.222  89.156  23.491  0.00  0.00    +0.056 A 
ATOM     14  CZ2 TRP A   1     -15.866  89.262  23.190  0.00  0.00    +0.017 A 
ATOM     15  CH2 TRP A   1     -15.451  88.824  21.966  0.00  0.00    +0.001 A 
ATOM     16  CZ3 TRP A   1     -16.358  88.273  21.038  0.00  0.00    +0.000 A 
ATOM     17  CE3 TRP A   1     -17.694  88.158  21.334  0.00  0.00    +0.001 A 
ATOM     18  CD2 TRP A   1     -18.155  88.610  22.577  0.00  0.00    +0.013 A 
ENDBRANCH   8   9
ENDBRANCH   5   8
ENDBRANCH   1   5
BRANCH   2  19
ATOM     19  CA  SER A   2     -19.403  84.282  19.760  0.00  0.00    +0.178 C 
BRANCH  19  20
ATOM     20  C   SER A   2     -19.341  82.812  20.152  0.00  0.00    +0.243 C 
ATOM     21  O   SER A   2     -18.898  82.484  21.275  0.00  0.00    -0.273 OA
ATOM     22  N   GLY A   3     -19.778  81.928  19.272  0.00  0.00    -0.296 N 
ATOM     23  H   GLY A   3     -19.995  82.231  18.301  0.00  0.00    +0.150 HD
BRANCH  22  24
ATOM     24  CA  GLY A   3     -19.959  80.525  19.652  0.00  0.00    +0.163 C 
BRANCH  24  25
ATOM     25  C   GLY A   3     -19.670  79.454  18.622  0.00  0.00    +0.229 C 
ATOM     26  O   GLY A   3     -19.573  79.727  17.428  0.00  0.00    -0.286 OA
ENDBRANCH  24  25
ENDBRANCH  22  24
ENDBRANCH  19  20
BRANCH  19  27
ATOM     27  CB  SER A   2     -18.048  84.754  19.218  0.00  0.00    +0.166 C 
BRANCH  27  28
ATOM     28  OG  SER A   2     -17.709  84.100  18.002  0.00  0.00    -0.380 OA
ATOM     29  H   SER A   2     -18.401  84.293  17.321  0.00  0.00    +0.211 HD
ENDBRANCH  27  28
ENDBRANCH  19  27
ENDBRANCH   2  19
TORSDOF 10
REMARK  Name = ../refined-set-2016/4cpy/4cpy_pocket.pdb
REMARK  177 active torsions:
REMARK  status: ('A' for Active; 'I' for Inactive)
REMARK    1  A    between atoms: _1  and  _3
REMARK    2  A    between atoms: _3  and  _4
REMARK    3  A    between atoms: _3  and  _6
REMARK    4  A    between atoms: _6  and  _7
REMARK    5  A    between atoms: _7  and  _8
REMARK    6  A    between atoms: _8  and  _9
REMARK    7  A    between atoms: _18  and  _20
REMARK    8  A    between atoms: _20  and  _21
REMARK    9  A    between atoms: _20  and  _23
REMARK   10  A    between atoms: _23  and  _24
REMARK   11  A    between atoms: _24  and  _25
REMARK   12  A    between atoms: _28  and  _30
REMARK   13  A    between atoms: _30  and  _31
REMARK   14  A    between atoms: _30  and  _33
REMARK   15  A    between atoms: _33  and  _34
REMARK   16  A    between atoms: _37  and  _39
REMARK   17  A    between atoms: _39  and  _40
REMARK   18  A    between atoms: _39  and  _42
REMARK   19  A    between atoms: _42  and  _43
REMARK   20  A    between atoms: _48  and  _50
REMARK   21  A    between atoms: _50  and  _51
REMARK   22  A    between atoms: _50  and  _53
REMARK   23  A    between atoms: _53  and  _54
REMARK   24  A    between atoms: _54  and  _55
REMARK   25  A    between atoms: _55  and  _56
REMARK   26  A    between atoms: _65  and  _67
REMARK   27  A    between atoms: _67  and  _68
REMARK   28  A    between atoms: _70  and  _72
REMARK   29  A    between atoms: _72  and  _73
REMARK   30  A    between atoms: _72  and  _75
REMARK   31  A    between atoms: _75  and  _76
REMARK   32  A    between atoms: _79  and  _81
REMARK   33  A    between atoms: _81  and  _82
REMARK   34  A    between atoms: _81  and  _84
REMARK   35  A    between atoms: _84  and  _85
REMARK   36  A    between atoms: _85  and  _86
REMARK   37  A    between atoms: _86  and  _87
REMARK   38  A    between atoms: _96  and  _98
REMARK   39  A    between atoms: _98  and  _99
REMARK   40  A    between atoms: _98  and  _101
REMARK   41  A    between atoms: _101  and  _102
REMARK   42  A    between atoms: _107  and  _109
REMARK   43  A    between atoms: _109  and  _110
REMARK   44  A    between atoms: _109  and  _112
REMARK   45  A    between atoms: _112  and  _113
REMARK   46  A    between atoms: _113  and  _114
REMARK   47  A    between atoms: _114  and  _115
REMARK   48  A    between atoms: _124  and  _126
REMARK   49  A    between atoms: _126  and  _127
REMARK   50  A    between atoms: _126  and  _129
REMARK   51  A    between atoms: _129  and  _130
REMARK   52  A    between atoms: _140  and  _142
REMARK   53  A    between atoms: _142  and  _143
REMARK   54  A    between atoms: _142  and  _145
REMARK   55  A    between atoms: _145  and  _146
REMARK   56  A    between atoms: _148  and  _150
REMARK   57  A    between atoms: _150  and  _151
REMARK   58  A    between atoms: _153  and  _155
REMARK   59  A    between atoms: _155  and  _156
REMARK   60  A    between atoms: _155  and  _158
REMARK   61  A    between atoms: _161  and  _163
REMARK   62  A    between atoms: _163  and  _164
REMARK   63  A    between atoms: _163  and  _166
REMARK   64  A    between atoms: _166  and  _167
REMARK   65  A    between atoms: _170  and  _172
REMARK   66  A    between atoms: _172  and  _173
REMARK   67  A    between atoms: _172  and  _175
REMARK   68  A    between atoms: _175  and  _176
REMARK   69  A    between atoms: _179  and  _181
REMARK   70  A    between atoms: _181  and  _182
REMARK   71  A    between atoms: _181  and  _184
REMARK   72  A    between atoms: _184  and  _185
REMARK   73  A    between atoms: _188  and  _190
REMARK   74  A    between atoms: _190  and  _191
REMARK   75  A    between atoms: _190  and  _193
REMARK   76  A    between atoms: _193  and  _194
REMARK   77  A    between atoms: _194  and  _195
REMARK   78  A    between atoms: _195  and  _196
REMARK   79  A    between atoms: _205  and  _207
REMARK   80  A    between atoms: _207  and  _208
REMARK   81  A    between atoms: _207  and  _210
REMARK   82  A    between atoms: _210  and  _211
REMARK   83  A    between atoms: _214  and  _216
REMARK   84  A    between atoms: _216  and  _217
REMARK   85  A    between atoms: _216  and  _219
REMARK   86  A    between atoms: _219  and  _220
REMARK   87  A    between atoms: _220  and  _221
REMARK   88  A    between atoms: _224  and  _226
REMARK   89  A    between atoms: _226  and  _227
REMARK   90  A    between atoms: _226  and  _229
REMARK   91  A    between atoms: _229  and  _230
REMARK   92  A    between atoms: _233  and  _235
REMARK   93  A    between atoms: _235  and  _236
REMARK   94  A    between atoms: _238  and  _240
REMARK   95  A    between atoms: _240  and  _241
REMARK   96  A    between atoms: _240  and  _243
REMARK   97  A    between atoms: _243  and  _244
REMARK   98  A    between atoms: _246  and  _248
REMARK   99  A    between atoms: _248  and  _249
REMARK  100  A    between atoms: _252  and  _254
REMARK  101  A    between atoms: _254  and  _255
REMARK  102  A    between atoms: _254  and  _257
REMARK  103  A    between atoms: _257  and  _258
REMARK  104  A    between atoms: _260  and  _262
REMARK  105  A    between atoms: _262  and  _263
REMARK  106  A    between atoms: _262  and  _265
REMARK  107  A    between atoms: _265  and  _266
REMARK  108  A    between atoms: _268  and  _270
REMARK  109  A    between atoms: _270  and  _271
REMARK  110  A    between atoms: _270  and  _273
REMARK  111  A    between atoms: _273  and  _274
REMARK  112  A    between atoms: _279  and  _281
REMARK  113  A    between atoms: _281  and  _282
REMARK  114  A    between atoms: _281  and  _284
REMARK  115  A    between atoms: _284  and  _285
REMARK  116  A    between atoms: _285  and  _286
REMARK  117  A    between atoms: _289  and  _291
REMARK  118  A    between atoms: _291  and  _292
REMARK  119  A    between atoms: _291  and  _294
REMARK  120  A    between atoms: _294  and  _295
REMARK  121  A    between atoms: _295  and  _296
REMARK  122  A    between atoms: _299  and  _301
REMARK  123  A    between atoms: _301  and  _302
REMARK  124  A    between atoms: _301  and  _304
REMARK  125  A    between atoms: _304  and  _305
REMARK  126  A    between atoms: _305  and  _306
REMARK  127  A    between atoms: _306  and  _307
REMARK  128  A    between atoms: _316  and  _318
REMARK  129  A    between atoms: _318  and  _319
REMARK  130  A    between atoms: _318  and  _321
REMARK  131  A    between atoms: _321  and  _322
REMARK  132  A    between atoms: _327  and  _329
REMARK  133  A    between atoms: _329  and  _330
REMARK  134  A    between atoms: _329  and  _332
REMARK  135  A    between atoms: _332  and  _333
REMARK  136  A    between atoms: _336  and  _338
REMARK  137  A    between atoms: _338  and  _339
REMARK  138  A    between atoms: _341  and  _343
REMARK  139  A    between atoms: _343  and  _344
REMARK  140  A    between atoms: _346  and  _348
REMARK  141  A    between atoms: _348  and  _349
REMARK  142  A    between atoms: _348  and  _351
REMARK  143  A    between atoms: _351  and  _352
REMARK  144  A    between atoms: _355  and  _357
REMARK  145  A    between atoms: _357  and  _358
REMARK  146  A    between atoms: _357  and  _360
REMARK  147  A    between atoms: _360  and  _361
REMARK  148  A    between atoms: _361  and  _362
REMARK  149  A    between atoms: _362  and  _363
REMARK  150  A    between atoms: _363  and  _364
REMARK  151  A    between atoms: _368  and  _370
REMARK  152  A    between atoms: _370  and  _371
REMARK  153  A    between atoms: _370  and  _373
REMARK  154  A    between atoms: _373  and  _374
REMARK  155  A    between atoms: _374  and  _375
REMARK  156  A    between atoms: _375  and  _376
REMARK  157  A    between atoms: _385  and  _387
REMARK  158  A    between atoms: _387  and  _388
REMARK  159  A    between atoms: _387  and  _390
REMARK  160  A    between atoms: _390  and  _391
REMARK  161  A    between atoms: _401  and  _403
REMARK  162  A    between atoms: _403  and  _404
REMARK  163  A    between atoms: _403  and  _406
REMARK  164  A    between atoms: _406  and  _407
REMARK  165  A    between atoms: _412  and  _413
REMARK  166  A    between atoms: _415  and  _417
REMARK  167  A    between atoms: _417  and  _418
REMARK  168  A    between atoms: _417  and  _420
REMARK  169  A    between atoms: _420  and  _421
REMARK  170  A    between atoms: _421  and  _422
REMARK  171  A    between atoms: _425  and  _427
REMARK  172  A    between atoms: _427  and  _428
REMARK  173  A    between atoms: _427  and  _430
REMARK  174  A    between atoms: _433  and  _435
REMARK  175  A    between atoms: _435  and  _436
REMARK  176  A    between atoms: _435  and  _438
REMARK  177  A    between atoms: _438  and  _439
REMARK                            x       y       z     vdW  Elec       q    Type
REMARK                         _______ _______ _______ _____ _____    ______ ____
ROOT
ATOM      1  CA  VAL A   1     -16.007  83.686  23.575  0.00  0.00    +0.133 C 
ENDROOT
BRANCH   1   2
ATOM      2  CB  VAL A   1     -15.400  84.240  22.262  0.00  0.00    +0.023 C 
ATOM      3  CG2 VAL A   1     -14.334  85.284  22.560  0.00  0.00    +0.002 C 
ATOM      4  CG1 VAL A   1     -14.813  83.114  21.437  0.00  0.00    +0.002 C 
ENDBRANCH   1   2
BRANCH   1   5
ATOM      5  N   VAL A   1     -16.893  82.538  23.336  0.00  0.00    -0.239 NA
ATOM      6  H   VAL A   1     -17.512  82.549  22.500  0.00  0.00    +0.142 HD
ENDBRANCH   1   5
BRANCH   1   7
ATOM      7  C   VAL A   1     -16.758  84.822  24.284  0.00  0.00    +0.224 C 
ATOM      8  O   VAL A   1     -17.828  85.236  23.849  0.00  0.00    -0.287 OA
ENDBRANCH   1   7
TORSDOF 3
REMARK  Name = ../refined-set-2016/4cpy/4cpy_pocket.pdb
REMARK  177 active torsions:
REMARK  status: ('A' for Active; 'I' for Inactive)
REMARK    1  A    between atoms: _1  and  _3
REMARK    2  A    between atoms: _3  and  _4
REMARK    3  A    between atoms: _3  and  _6
REMARK    4  A    between atoms: _6  and  _7
REMARK    5  A    between atoms: _7  and  _8
REMARK    6  A    between atoms: _8  and  _9
REMARK    7  A    between atoms: _18  and  _20
REMARK    8  A    between atoms: _20  and  _21
REMARK    9  A    between atoms: _20  and  _23
REMARK   10  A    between atoms: _23  and  _24
REMARK   11  A    between atoms: _24  and  _25
REMARK   12  A    between atoms: _28  and  _30
REMARK   13  A    between atoms: _30  and  _31
REMARK   14  A    between atoms: _30  and  _33
REMARK   15  A    between atoms: _33  and  _34
REMARK   16  A    between atoms: _37  and  _39
REMARK   17  A    between atoms: _39  and  _40
REMARK   18  A    between atoms: _39  and  _42
REMARK   19  A    between atoms: _42  and  _43
REMARK   20  A    between atoms: _48  and  _50
REMARK   21  A    between atoms: _50  and  _51
REMARK   22  A    between atoms: _50  and  _53
REMARK   23  A    between atoms: _53  and  _54
REMARK   24  A    between atoms: _54  and  _55
REMARK   25  A    between atoms: _55  and  _56
REMARK   26  A    between atoms: _65  and  _67
REMARK   27  A    between atoms: _67  and  _68
REMARK   28  A    between atoms: _70  and  _72
REMARK   29  A    between atoms: _72  and  _73
REMARK   30  A    between atoms: _72  and  _75
REMARK   31  A    between atoms: _75  and  _76
REMARK   32  A    between atoms: _79  and  _81
REMARK   33  A    between atoms: _81  and  _82
REMARK   34  A    between atoms: _81  and  _84
REMARK   35  A    between atoms: _84  and  _85
REMARK   36  A    between atoms: _85  and  _86
REMARK   37  A    between atoms: _86  and  _87
REMARK   38  A    between atoms: _96  and  _98
REMARK   39  A    between atoms: _98  and  _99
REMARK   40  A    between atoms: _98  and  _101
REMARK   41  A    between atoms: _101  and  _102
REMARK   42  A    between atoms: _107  and  _109
REMARK   43  A    between atoms: _109  and  _110
REMARK   44  A    between atoms: _109  and  _112
REMARK   45  A    between atoms: _112  and  _113
REMARK   46  A    between atoms: _113  and  _114
REMARK   47  A    between atoms: _114  and  _115
REMARK   48  A    between atoms: _124  and  _126
REMARK   49  A    between atoms: _126  and  _127
REMARK   50  A    between atoms: _126  and  _129
REMARK   51  A    between atoms: _129  and  _130
REMARK   52  A    between atoms: _140  and  _142
REMARK   53  A    between atoms: _142  and  _143
REMARK   54  A    between atoms: _142  and  _145
REMARK   55  A    between atoms: _145  and  _146
REMARK   56  A    between atoms: _148  and  _150
REMARK   57  A    between atoms: _150  and  _151
REMARK   58  A    between atoms: _153  and  _155
REMARK   59  A    between atoms: _155  and  _156
REMARK   60  A    between atoms: _155  and  _158
REMARK   61  A    between atoms: _161  and  _163
REMARK   62  A    between atoms: _163  and  _164
REMARK   63  A    between atoms: _163  and  _166
REMARK   64  A    between atoms: _166  and  _167
REMARK   65  A    between atoms: _170  and  _172
REMARK   66  A    between atoms: _172  and  _173
REMARK   67  A    between atoms: _172  and  _175
REMARK   68  A    between atoms: _175  and  _176
REMARK   69  A    between atoms: _179  and  _181
REMARK   70  A    between atoms: _181  and  _182
REMARK   71  A    between atoms: _181  and  _184
REMARK   72  A    between atoms: _184  and  _185
REMARK   73  A    between atoms: _188  and  _190
REMARK   74  A    between atoms: _190  and  _191
REMARK   75  A    between atoms: _190  and  _193
REMARK   76  A    between atoms: _193  and  _194
REMARK   77  A    between atoms: _194  and  _195
REMARK   78  A    between atoms: _195  and  _196
REMARK   79  A    between atoms: _205  and  _207
REMARK   80  A    between atoms: _207  and  _208
REMARK   81  A    between atoms: _207  and  _210
REMARK   82  A    between atoms: _210  and  _211
REMARK   83  A    between atoms: _214  and  _216
REMARK   84  A    between atoms: _216  and  _217
REMARK   85  A    between atoms: _216  and  _219
REMARK   86  A    between atoms: _219  and  _220
REMARK   87  A    between atoms: _220  and  _221
REMARK   88  A    between atoms: _224  and  _226
REMARK   89  A    between atoms: _226  and  _227
REMARK   90  A    between atoms: _226  and  _229
REMARK   91  A    between atoms: _229  and  _230
REMARK   92  A    between atoms: _233  and  _235
REMARK   93  A    between atoms: _235  and  _236
REMARK   94  A    between atoms: _238  and  _240
REMARK   95  A    between atoms: _240  and  _241
REMARK   96  A    between atoms: _240  and  _243
REMARK   97  A    between atoms: _243  and  _244
REMARK   98  A    between atoms: _246  and  _248
REMARK   99  A    between atoms: _248  and  _249
REMARK  100  A    between atoms: _252  and  _254
REMARK  101  A    between atoms: _254  and  _255
REMARK  102  A    between atoms: _254  and  _257
REMARK  103  A    between atoms: _257  and  _258
REMARK  104  A    between atoms: _260  and  _262
REMARK  105  A    between atoms: _262  and  _263
REMARK  106  A    between atoms: _262  and  _265
REMARK  107  A    between atoms: _265  and  _266
REMARK  108  A    between atoms: _268  and  _270
REMARK  109  A    between atoms: _270  and  _271
REMARK  110  A    between atoms: _270  and  _273
REMARK  111  A    between atoms: _273  and  _274
REMARK  112  A    between atoms: _279  and  _281
REMARK  113  A    between atoms: _281  and  _282
REMARK  114  A    between atoms: _281  and  _284
REMARK  115  A    between atoms: _284  and  _285
REMARK  116  A    between atoms: _285  and  _286
REMARK  117  A    between atoms: _289  and  _291
REMARK  118  A    between atoms: _291  and  _292
REMARK  119  A    between atoms: _291  and  _294
REMARK  120  A    between atoms: _294  and  _295
REMARK  121  A    between atoms: _295  and  _296
REMARK  122  A    between atoms: _299  and  _301
REMARK  123  A    between atoms: _301  and  _302
REMARK  124  A    between atoms: _301  and  _304
REMARK  125  A    between atoms: _304  and  _305
REMARK  126  A    between atoms: _305  and  _306
REMARK  127  A    between atoms: _306  and  _307
REMARK  128  A    between atoms: _316  and  _318
REMARK  129  A    between atoms: _318  and  _319
REMARK  130  A    between atoms: _318  and  _321
REMARK  131  A    between atoms: _321  and  _322
REMARK  132  A    between atoms: _327  and  _329
REMARK  133  A    between atoms: _329  and  _330
REMARK  134  A    between atoms: _329  and  _332
REMARK  135  A    between atoms: _332  and  _333
REMARK  136  A    between atoms: _336  and  _338
REMARK  137  A    between atoms: _338  and  _339
REMARK  138  A    between atoms: _341  and  _343
REMARK  139  A    between atoms: _343  and  _344
REMARK  140  A    between atoms: _346  and  _348
REMARK  141  A    between atoms: _348  and  _349
REMARK  142  A    between atoms: _348  and  _351
REMARK  143  A    between atoms: _351  and  _352
REMARK  144  A    between atoms: _355  and  _357
REMARK  145  A    between atoms: _357  and  _358
REMARK  146  A    between atoms: _357  and  _360
REMARK  147  A    between atoms: _360  and  _361
REMARK  148  A    between atoms: _361  and  _362
REMARK  149  A    between atoms: _362  and  _363
REMARK  150  A    between atoms: _363  and  _364
REMARK  151  A    between atoms: _368  and  _370
REMARK  152  A    between atoms: _370  and  _371
REMARK  153  A    between atoms: _370  and  _373
REMARK  154  A    between atoms: _373  and  _374
REMARK  155  A    between atoms: _374  and  _375
REMARK  156  A    between atoms: _375  and  _376
REMARK  157  A    between atoms: _385  and  _387
REMARK  158  A    between atoms: _387  and  _388
REMARK  159  A    between atoms: _387  and  _390
REMARK  160  A    between atoms: _390  and  _391
REMARK  161  A    between atoms: _401  and  _403
REMARK  162  A    between atoms: _403  and  _404
REMARK  163  A    between atoms: _403  and  _406
REMARK  164  A    between atoms: _406  and  _407
REMARK  165  A    between atoms: _412  and  _413
REMARK  166  A    between atoms: _415  and  _417
REMARK  167  A    between atoms: _417  and  _418
REMARK  168  A    between atoms: _417  and  _420
REMARK  169  A    between atoms: _420  and  _421
REMARK  170  A    between atoms: _421  and  _422
REMARK  171  A    between atoms: _425  and  _427
REMARK  172  A    between atoms: _427  and  _428
REMARK  173  A    between atoms: _427  and  _430
REMARK  174  A    between atoms: _433  and  _435
REMARK  175  A    between atoms: _435  and  _436
REMARK  176  A    between atoms: _435  and  _438
REMARK  177  A    between atoms: _438  and  _439
REMARK                            x       y       z     vdW  Elec       q    Type
REMARK                         _______ _______ _______ _____ _____    ______ ____
ROOT
ATOM      1  CA  ASP A   1     -12.945  93.574  23.163  0.00  0.00    +0.144 C 
ENDROOT
BRANCH   1   2
ATOM      2  N   ASP A   1     -13.369  93.635  24.562  0.00  0.00    -0.239 NA
ATOM      3  H   ASP A   1     -13.941  94.440  24.887  0.00  0.00    +0.142 HD
ENDBRANCH   1   2
BRANCH   1   4
ATOM      4  C   ASP A   1     -11.437  93.377  22.995  0.00  0.00    +0.225 C 
ATOM      5  O   ASP A   1     -11.034  92.571  22.189  0.00  0.00    -0.287 OA
ENDBRANCH   1   4
BRANCH   1   6
ATOM      6  CB  ASP A   1     -13.359  94.837  22.409  0.00  0.00    +0.139 C 
BRANCH   6   7
ATOM      7  CG  ASP A   1     -14.847  94.880  22.097  0.00  0.00    +0.367 C 
ATOM      8  OD2 ASP A   1     -15.618  93.970  22.488  0.00  0.00    -0.246 OA
ATOM      9  OD1 ASP A   1     -15.247  95.854  21.437  0.00  0.00    -0.246 OA
ENDBRANCH   6   7
ENDBRANCH   1   6
TORSDOF 4
REMARK  Name = ../refined-set-2016/4cpy/4cpy_pocket.pdb
REMARK  177 active torsions:
REMARK  status: ('A' for Active; 'I' for Inactive)
REMARK    1  A    between atoms: _1  and  _3
REMARK    2  A    between atoms: _3  and  _4
REMARK    3  A    between atoms: _3  and  _6
REMARK    4  A    between atoms: _6  and  _7
REMARK    5  A    between atoms: _7  and  _8
REMARK    6  A    between atoms: _8  and  _9
REMARK    7  A    between atoms: _18  and  _20
REMARK    8  A    between atoms: _20  and  _21
REMARK    9  A    between atoms: _20  and  _23
REMARK   10  A    between atoms: _23  and  _24
REMARK   11  A    between atoms: _24  and  _25
REMARK   12  A    between atoms: _28  and  _30
REMARK   13  A    between atoms: _30  and  _31
REMARK   14  A    between atoms: _30  and  _33
REMARK   15  A    between atoms: _33  and  _34
REMARK   16  A    between atoms: _37  and  _39
REMARK   17  A    between atoms: _39  and  _40
REMARK   18  A    between atoms: _39  and  _42
REMARK   19  A    between atoms: _42  and  _43
REMARK   20  A    between atoms: _48  and  _50
REMARK   21  A    between atoms: _50  and  _51
REMARK   22  A    between atoms: _50  and  _53
REMARK   23  A    between atoms: _53  and  _54
REMARK   24  A    between atoms: _54  and  _55
REMARK   25  A    between atoms: _55  and  _56
REMARK   26  A    between atoms: _65  and  _67
REMARK   27  A    between atoms: _67  and  _68
REMARK   28  A    between atoms: _70  and  _72
REMARK   29  A    between atoms: _72  and  _73
REMARK   30  A    between atoms: _72  and  _75
REMARK   31  A    between atoms: _75  and  _76
REMARK   32  A    between atoms: _79  and  _81
REMARK   33  A    between atoms: _81  and  _82
REMARK   34  A    between atoms: _81  and  _84
REMARK   35  A    between atoms: _84  and  _85
REMARK   36  A    between atoms: _85  and  _86
REMARK   37  A    between atoms: _86  and  _87
REMARK   38  A    between atoms: _96  and  _98
REMARK   39  A    between atoms: _98  and  _99
REMARK   40  A    between atoms: _98  and  _101
REMARK   41  A    between atoms: _101  and  _102
REMARK   42  A    between atoms: _107  and  _109
REMARK   43  A    between atoms: _109  and  _110
REMARK   44  A    between atoms: _109  and  _112
REMARK   45  A    between atoms: _112  and  _113
REMARK   46  A    between atoms: _113  and  _114
REMARK   47  A    between atoms: _114  and  _115
REMARK   48  A    between atoms: _124  and  _126
REMARK   49  A    between atoms: _126  and  _127
REMARK   50  A    between atoms: _126  and  _129
REMARK   51  A    between atoms: _129  and  _130
REMARK   52  A    between atoms: _140  and  _142
REMARK   53  A    between atoms: _142  and  _143
REMARK   54  A    between atoms: _142  and  _145
REMARK   55  A    between atoms: _145  and  _146
REMARK   56  A    between atoms: _148  and  _150
REMARK   57  A    between atoms: _150  and  _151
REMARK   58  A    between atoms: _153  and  _155
REMARK   59  A    between atoms: _155  and  _156
REMARK   60  A    between atoms: _155  and  _158
REMARK   61  A    between atoms: _161  and  _163
REMARK   62  A    between atoms: _163  and  _164
REMARK   63  A    between atoms: _163  and  _166
REMARK   64  A    between atoms: _166  and  _167
REMARK   65  A    between atoms: _170  and  _172
REMARK   66  A    between atoms: _172  and  _173
REMARK   67  A    between atoms: _172  and  _175
REMARK   68  A    between atoms: _175  and  _176
REMARK   69  A    between atoms: _179  and  _181
REMARK   70  A    between atoms: _181  and  _182
REMARK   71  A    between atoms: _181  and  _184
REMARK   72  A    between atoms: _184  and  _185
REMARK   73  A    between atoms: _188  and  _190
REMARK   74  A    between atoms: _190  and  _191
REMARK   75  A    between atoms: _190  and  _193
REMARK   76  A    between atoms: _193  and  _194
REMARK   77  A    between atoms: _194  and  _195
REMARK   78  A    between atoms: _195  and  _196
REMARK   79  A    between atoms: _205  and  _207
REMARK   80  A    between atoms: _207  and  _208
REMARK   81  A    between atoms: _207  and  _210
REMARK   82  A    between atoms: _210  and  _211
REMARK   83  A    between atoms: _214  and  _216
REMARK   84  A    between atoms: _216  and  _217
REMARK   85  A    between atoms: _216  and  _219
REMARK   86  A    between atoms: _219  and  _220
REMARK   87  A    between atoms: _220  and  _221
REMARK   88  A    between atoms: _224  and  _226
REMARK   89  A    between atoms: _226  and  _227
REMARK   90  A    between atoms: _226  and  _229
REMARK   91  A    between atoms: _229  and  _230
REMARK   92  A    between atoms: _233  and  _235
REMARK   93  A    between atoms: _235  and  _236
REMARK   94  A    between atoms: _238  and  _240
REMARK   95  A    between atoms: _240  and  _241
REMARK   96  A    between atoms: _240  and  _243
REMARK   97  A    between atoms: _243  and  _244
REMARK   98  A    between atoms: _246  and  _248
REMARK   99  A    between atoms: _248  and  _249
REMARK  100  A    between atoms: _252  and  _254
REMARK  101  A    between atoms: _254  and  _255
REMARK  102  A    between atoms: _254  and  _257
REMARK  103  A    between atoms: _257  and  _258
REMARK  104  A    between atoms: _260  and  _262
REMARK  105  A    between atoms: _262  and  _263
REMARK  106  A    between atoms: _262  and  _265
REMARK  107  A    between atoms: _265  and  _266
REMARK  108  A    between atoms: _268  and  _270
REMARK  109  A    between atoms: _270  and  _271
REMARK  110  A    between atoms: _270  and  _273
REMARK  111  A    between atoms: _273  and  _274
REMARK  112  A    between atoms: _279  and  _281
REMARK  113  A    between atoms: _281  and  _282
REMARK  114  A    between atoms: _281  and  _284
REMARK  115  A    between atoms: _284  and  _285
REMARK  116  A    between atoms: _285  and  _286
REMARK  117  A    between atoms: _289  and  _291
REMARK  118  A    between atoms: _291  and  _292
REMARK  119  A    between atoms: _291  and  _294
REMARK  120  A    between atoms: _294  and  _295
REMARK  121  A    between atoms: _295  and  _296
REMARK  122  A    between atoms: _299  and  _301
REMARK  123  A    between atoms: _301  and  _302
REMARK  124  A    between atoms: _301  and  _304
REMARK  125  A    between atoms: _304  and  _305
REMARK  126  A    between atoms: _305  and  _306
REMARK  127  A    between atoms: _306  and  _307
REMARK  128  A    between atoms: _316  and  _318
REMARK  129  A    between atoms: _318  and  _319
REMARK  130  A    between atoms: _318  and  _321
REMARK  131  A    between atoms: _321  and  _322
REMARK  132  A    between atoms: _327  and  _329
REMARK  133  A    between atoms: _329  and  _330
REMARK  134  A    between atoms: _329  and  _332
REMARK  135  A    between atoms: _332  and  _333
REMARK  136  A    between atoms: _336  and  _338
REMARK  137  A    between atoms: _338  and  _339
REMARK  138  A    between atoms: _341  and  _343
REMARK  139  A    between atoms: _343  and  _344
REMARK  140  A    between atoms: _346  and  _348
REMARK  141  A    between atoms: _348  and  _349
REMARK  142  A    between atoms: _348  and  _351
REMARK  143  A    between atoms: _351  and  _352
REMARK  144  A    between atoms: _355  and  _357
REMARK  145  A    between atoms: _357  and  _358
REMARK  146  A    between atoms: _357  and  _360
REMARK  147  A    between atoms: _360  and  _361
REMARK  148  A    between atoms: _361  and  _362
REMARK  149  A    between atoms: _362  and  _363
REMARK  150  A    between atoms: _363  and  _364
REMARK  151  A    between atoms: _368  and  _370
REMARK  152  A    between atoms: _370  and  _371
REMARK  153  A    between atoms: _370  and  _373
REMARK  154  A    between atoms: _373  and  _374
REMARK  155  A    between atoms: _374  and  _375
REMARK  156  A    between atoms: _375  and  _376
REMARK  157  A    between atoms: _385  and  _387
REMARK  158  A    between atoms: _387  and  _388
REMARK  159  A    between atoms: _387  and  _390
REMARK  160  A    between atoms: _390  and  _391
REMARK  161  A    between atoms: _401  and  _403
REMARK  162  A    between atoms: _403  and  _404
REMARK  163  A    between atoms: _403  and  _406
REMARK  164  A    between atoms: _406  and  _407
REMARK  165  A    between atoms: _412  and  _413
REMARK  166  A    between atoms: _415  and  _417
REMARK  167  A    between atoms: _417  and  _418
REMARK  168  A    between atoms: _417  and  _420
REMARK  169  A    between atoms: _420  and  _421
REMARK  170  A    between atoms: _421  and  _422
REMARK  171  A    between atoms: _425  and  _427
REMARK  172  A    between atoms: _427  and  _428
REMARK  173  A    between atoms: _427  and  _430
REMARK  174  A    between atoms: _433  and  _435
REMARK  175  A    between atoms: _435  and  _436
REMARK  176  A    between atoms: _435  and  _438
REMARK  177  A    between atoms: _438  and  _439
REMARK                            x       y       z     vdW  Elec       q    Type
REMARK                         _______ _______ _______ _____ _____    ______ ____
ROOT
ATOM      1  CA  ARG A   3     -13.962  85.403  17.930  0.00  0.00    +0.149 C 
ENDROOT
BRANCH   1   4
ATOM      2  C   LEU A   2     -12.481  86.775  19.283  0.00  0.00    +0.241 C 
ATOM      3  O   LEU A   2     -13.430  87.198  19.948  0.00  0.00    -0.273 OA
ATOM      4  N   ARG A   3     -12.633  85.880  18.315  0.00  0.00    -0.297 N 
ATOM      5  H   ARG A   3     -11.794  85.512  17.822  0.00  0.00    +0.150 HD
BRANCH   2   6
ATOM      6  CA  LEU A   2     -11.059  87.295  19.525  0.00  0.00    +0.149 C 
BRANCH   6   8
ATOM      7  C   LEU A   1     -11.473  89.559  18.745  0.00  0.00    +0.238 C 
ATOM      8  N   LEU A   2     -11.090  88.744  19.724  0.00  0.00    -0.297 N 
ATOM      9  H   LEU A   2     -10.809  89.142  20.643  0.00  0.00    +0.150 HD
ATOM     10  O   LEU A   1     -11.799  89.145  17.632  0.00  0.00    -0.274 OA
BRANCH   7  11
ATOM     11  CA  LEU A   1     -11.509  91.064  19.052  0.00  0.00    +0.145 C 
BRANCH  11  12
ATOM     12  N   LEU A   1     -10.235  91.692  18.717  0.00  0.00    -0.238 NA
ATOM     13  H   LEU A   1      -9.531  91.131  18.197  0.00  0.00    +0.142 HD
ENDBRANCH  11  12
BRANCH  11  14
ATOM     14  CB  LEU A   1     -12.649  91.689  18.238  0.00  0.00    +0.026 C 
BRANCH  14  15
ATOM     15  CG  LEU A   1     -14.030  91.194  18.638  0.00  0.00    +0.002 C 
ATOM     16  CD2 LEU A   1     -14.373  91.645  20.050  0.00  0.00    +0.000 C 
ATOM     17  CD1 LEU A   1     -15.054  91.674  17.623  0.00  0.00    +0.000 C 
ENDBRANCH  14  15
ENDBRANCH  11  14
ENDBRANCH   7  11
ENDBRANCH   6   8
BRANCH   6  18
ATOM     18  CB  LEU A   2     -10.410  86.585  20.727  0.00  0.00    +0.029 C 
BRANCH  18  19
ATOM     19  CG  LEU A   2     -10.360  85.047  20.664  0.00  0.00    +0.002 C 
ATOM     20  CD2 LEU A   2     -10.026  84.442  22.015  0.00  0.00    +0.000 C 
ATOM     21  CD1 LEU A   2      -9.351  84.572  19.626  0.00  0.00    +0.000 C 
ENDBRANCH  18  19
ENDBRANCH   6  18
ENDBRANCH   2   6
ENDBRANCH   1   4
BRANCH   1  22
ATOM     22  C   ARG A   3     -13.894  84.050  17.226  0.00  0.00    +0.241 C 
ATOM     23  N   THR A   4     -15.034  83.392  17.055  0.00  0.00    -0.296 N 
ATOM     24  H   THR A   4     -15.932  83.838  17.331  0.00  0.00    +0.150 HD
ATOM     25  O   ARG A   3     -12.819  83.591  16.861  0.00  0.00    -0.273 OA
BRANCH  23  26
ATOM     26  CA  THR A   4     -15.041  82.051  16.485  0.00  0.00    +0.164 C 
BRANCH  26  27
ATOM     27  CB  THR A   4     -15.072  80.961  17.585  0.00  0.00    +0.136 C 
ATOM     28  CG2 THR A   4     -16.408  80.962  18.359  0.00  0.00    +0.034 C 
BRANCH  27  29
ATOM     29  OG1 THR A   4     -14.835  79.667  17.003  0.00  0.00    -0.382 OA
ATOM     30  HG1 THR A   4     -13.948  79.662  16.563  0.00  0.00    +0.210 HD
ENDBRANCH  27  29
ENDBRANCH  26  27
BRANCH  26  31
ATOM     31  C   THR A   4     -16.124  81.895  15.402  0.00  0.00    +0.229 C 
ATOM     32  O   THR A   4     -16.609  82.892  14.880  0.00  0.00    -0.286 OA
ENDBRANCH  26  31
ENDBRANCH  23  26
ENDBRANCH   1  22
BRANCH   1  33
ATOM     33  CB  ARG A   3     -14.687  86.470  17.091  0.00  0.00    +0.033 C 
BRANCH  33  34
ATOM     34  CG  ARG A   3     -13.937  86.970  15.874  0.00  0.00    +0.045 C 
BRANCH  34  35
ATOM     35  CD  ARG A   3     -14.391  88.385  15.544  0.00  0.00    +0.174 C 
BRANCH  35  36
ATOM     36  NE  ARG A   3     -13.981  88.855  14.218  0.00  0.00    -0.265 N 
ATOM     37  CZ  ARG A   3     -12.868  89.534  13.968  0.00  0.00    +0.342 C 
ATOM     38  NH2 ARG A   3     -12.005  89.805  14.943  0.00  0.00    -0.292 N 
ATOM     39 HH21 ARG A   3     -12.199  89.484  15.913  0.00  0.00    +0.255 HD
ATOM     40 HH22 ARG A   3     -11.136  90.338  14.735  0.00  0.00    +0.255 HD
ATOM     41  NH1 ARG A   3     -12.613  89.954  12.727  0.00  0.00    -0.292 N 
ATOM     42 HH11 ARG A   3     -11.742  90.486  12.527  0.00  0.00    +0.255 HD
ATOM     43 HH12 ARG A   3     -13.285  89.749  11.960  0.00  0.00    +0.255 HD
ATOM     44  HE  ARG A   3     -14.607  88.641  13.415  0.00  0.00    +0.259 HD
ENDBRANCH  35  36
ENDBRANCH  34  35
ENDBRANCH  33  34
ENDBRANCH   1  33
TORSDOF 18
REMARK  Name = ../refined-set-2016/4cpy/4cpy_pocket.pdb
REMARK  177 active torsions:
REMARK  status: ('A' for Active; 'I' for Inactive)
REMARK    1  A    between atoms: _1  and  _3
REMARK    2  A    between atoms: _3  and  _4
REMARK    3  A    between atoms: _3  and  _6
REMARK    4  A    between atoms: _6  and  _7
REMARK    5  A    between atoms: _7  and  _8
REMARK    6  A    between atoms: _8  and  _9
REMARK    7  A    between atoms: _18  and  _20
REMARK    8  A    between atoms: _20  and  _21
REMARK    9  A    between atoms: _20  and  _23
REMARK   10  A    between atoms: _23  and  _24
REMARK   11  A    between atoms: _24  and  _25
REMARK   12  A    between atoms: _28  and  _30
REMARK   13  A    between atoms: _30  and  _31
REMARK   14  A    between atoms: _30  and  _33
REMARK   15  A    between atoms: _33  and  _34
REMARK   16  A    between atoms: _37  and  _39
REMARK   17  A    between atoms: _39  and  _40
REMARK   18  A    between atoms: _39  and  _42
REMARK   19  A    between atoms: _42  and  _43
REMARK   20  A    between atoms: _48  and  _50
REMARK   21  A    between atoms: _50  and  _51
REMARK   22  A    between atoms: _50  and  _53
REMARK   23  A    between atoms: _53  and  _54
REMARK   24  A    between atoms: _54  and  _55
REMARK   25  A    between atoms: _55  and  _56
REMARK   26  A    between atoms: _65  and  _67
REMARK   27  A    between atoms: _67  and  _68
REMARK   28  A    between atoms: _70  and  _72
REMARK   29  A    between atoms: _72  and  _73
REMARK   30  A    between atoms: _72  and  _75
REMARK   31  A    between atoms: _75  and  _76
REMARK   32  A    between atoms: _79  and  _81
REMARK   33  A    between atoms: _81  and  _82
REMARK   34  A    between atoms: _81  and  _84
REMARK   35  A    between atoms: _84  and  _85
REMARK   36  A    between atoms: _85  and  _86
REMARK   37  A    between atoms: _86  and  _87
REMARK   38  A    between atoms: _96  and  _98
REMARK   39  A    between atoms: _98  and  _99
REMARK   40  A    between atoms: _98  and  _101
REMARK   41  A    between atoms: _101  and  _102
REMARK   42  A    between atoms: _107  and  _109
REMARK   43  A    between atoms: _109  and  _110
REMARK   44  A    between atoms: _109  and  _112
REMARK   45  A    between atoms: _112  and  _113
REMARK   46  A    between atoms: _113  and  _114
REMARK   47  A    between atoms: _114  and  _115
REMARK   48  A    between atoms: _124  and  _126
REMARK   49  A    between atoms: _126  and  _127
REMARK   50  A    between atoms: _126  and  _129
REMARK   51  A    between atoms: _129  and  _130
REMARK   52  A    between atoms: _140  and  _142
REMARK   53  A    between atoms: _142  and  _143
REMARK   54  A    between atoms: _142  and  _145
REMARK   55  A    between atoms: _145  and  _146
REMARK   56  A    between atoms: _148  and  _150
REMARK   57  A    between atoms: _150  and  _151
REMARK   58  A    between atoms: _153  and  _155
REMARK   59  A    between atoms: _155  and  _156
REMARK   60  A    between atoms: _155  and  _158
REMARK   61  A    between atoms: _161  and  _163
REMARK   62  A    between atoms: _163  and  _164
REMARK   63  A    between atoms: _163  and  _166
REMARK   64  A    between atoms: _166  and  _167
REMARK   65  A    between atoms: _170  and  _172
REMARK   66  A    between atoms: _172  and  _173
REMARK   67  A    between atoms: _172  and  _175
REMARK   68  A    between atoms: _175  and  _176
REMARK   69  A    between atoms: _179  and  _181
REMARK   70  A    between atoms: _181  and  _182
REMARK   71  A    between atoms: _181  and  _184
REMARK   72  A    between atoms: _184  and  _185
REMARK   73  A    between atoms: _188  and  _190
REMARK   74  A    between atoms: _190  and  _191
REMARK   75  A    between atoms: _190  and  _193
REMARK   76  A    between atoms: _193  and  _194
REMARK   77  A    between atoms: _194  and  _195
REMARK   78  A    between atoms: _195  and  _196
REMARK   79  A    between atoms: _205  and  _207
REMARK   80  A    between atoms: _207  and  _208
REMARK   81  A    between atoms: _207  and  _210
REMARK   82  A    between atoms: _210  and  _211
REMARK   83  A    between atoms: _214  and  _216
REMARK   84  A    between atoms: _216  and  _217
REMARK   85  A    between atoms: _216  and  _219
REMARK   86  A    between atoms: _219  and  _220
REMARK   87  A    between atoms: _220  and  _221
REMARK   88  A    between atoms: _224  and  _226
REMARK   89  A    between atoms: _226  and  _227
REMARK   90  A    between atoms: _226  and  _229
REMARK   91  A    between atoms: _229  and  _230
REMARK   92  A    between atoms: _233  and  _235
REMARK   93  A    between atoms: _235  and  _236
REMARK   94  A    between atoms: _238  and  _240
REMARK   95  A    between atoms: _240  and  _241
REMARK   96  A    between atoms: _240  and  _243
REMARK   97  A    between atoms: _243  and  _244
REMARK   98  A    between atoms: _246  and  _248
REMARK   99  A    between atoms: _248  and  _249
REMARK  100  A    between atoms: _252  and  _254
REMARK  101  A    between atoms: _254  and  _255
REMARK  102  A    between atoms: _254  and  _257
REMARK  103  A    between atoms: _257  and  _258
REMARK  104  A    between atoms: _260  and  _262
REMARK  105  A    between atoms: _262  and  _263
REMARK  106  A    between atoms: _262  and  _265
REMARK  107  A    between atoms: _265  and  _266
REMARK  108  A    between atoms: _268  and  _270
REMARK  109  A    between atoms: _270  and  _271
REMARK  110  A    between atoms: _270  and  _273
REMARK  111  A    between atoms: _273  and  _274
REMARK  112  A    between atoms: _279  and  _281
REMARK  113  A    between atoms: _281  and  _282
REMARK  114  A    between atoms: _281  and  _284
REMARK  115  A    between atoms: _284  and  _285
REMARK  116  A    between atoms: _285  and  _286
REMARK  117  A    between atoms: _289  and  _291
REMARK  118  A    between atoms: _291  and  _292
REMARK  119  A    between atoms: _291  and  _294
REMARK  120  A    between atoms: _294  and  _295
REMARK  121  A    between atoms: _295  and  _296
REMARK  122  A    between atoms: _299  and  _301
REMARK  123  A    between atoms: _301  and  _302
REMARK  124  A    between atoms: _301  and  _304
REMARK  125  A    between atoms: _304  and  _305
REMARK  126  A    between atoms: _305  and  _306
REMARK  127  A    between atoms: _306  and  _307
REMARK  128  A    between atoms: _316  and  _318
REMARK  129  A    between atoms: _318  and  _319
REMARK  130  A    between atoms: _318  and  _321
REMARK  131  A    between atoms: _321  and  _322
REMARK  132  A    between atoms: _327  and  _329
REMARK  133  A    between atoms: _329  and  _330
REMARK  134  A    between atoms: _329  and  _332
REMARK  135  A    between atoms: _332  and  _333
REMARK  136  A    between atoms: _336  and  _338
REMARK  137  A    between atoms: _338  and  _339
REMARK  138  A    between atoms: _341  and  _343
REMARK  139  A    between atoms: _343  and  _344
REMARK  140  A    between atoms: _346  and  _348
REMARK  141  A    between atoms: _348  and  _349
REMARK  142  A    between atoms: _348  and  _351
REMARK  143  A    between atoms: _351  and  _352
REMARK  144  A    between atoms: _355  and  _357
REMARK  145  A    between atoms: _357  and  _358
REMARK  146  A    between atoms: _357  and  _360
REMARK  147  A    between atoms: _360  and  _361
REMARK  148  A    between atoms: _361  and  _362
REMARK  149  A    between atoms: _362  and  _363
REMARK  150  A    between atoms: _363  and  _364
REMARK  151  A    between atoms: _368  and  _370
REMARK  152  A    between atoms: _370  and  _371
REMARK  153  A    between atoms: _370  and  _373
REMARK  154  A    between atoms: _373  and  _374
REMARK  155  A    between atoms: _374  and  _375
REMARK  156  A    between atoms: _375  and  _376
REMARK  157  A    between atoms: _385  and  _387
REMARK  158  A    between atoms: _387  and  _388
REMARK  159  A    between atoms: _387  and  _390
REMARK  160  A    between atoms: _390  and  _391
REMARK  161  A    between atoms: _401  and  _403
REMARK  162  A    between atoms: _403  and  _404
REMARK  163  A    between atoms: _403  and  _406
REMARK  164  A    between atoms: _406  and  _407
REMARK  165  A    between atoms: _412  and  _413
REMARK  166  A    between atoms: _415  and  _417
REMARK  167  A    between atoms: _417  and  _418
REMARK  168  A    between atoms: _417  and  _420
REMARK  169  A    between atoms: _420  and  _421
REMARK  170  A    between atoms: _421  and  _422
REMARK  171  A    between atoms: _425  and  _427
REMARK  172  A    between atoms: _427  and  _428
REMARK  173  A    between atoms: _427  and  _430
REMARK  174  A    between atoms: _433  and  _435
REMARK  175  A    between atoms: _435  and  _436
REMARK  176  A    between atoms: _435  and  _438
REMARK  177  A    between atoms: _438  and  _439
REMARK                            x       y       z     vdW  Elec       q    Type
REMARK                         _______ _______ _______ _____ _____    ______ ____
ROOT
ATOM      1  CA  GLU A   1     -20.888  80.838  14.702  0.00  0.00    +0.134 C 
ENDROOT
BRANCH   1   2
ATOM      2  N   GLU A   1     -19.411  80.754  14.746  0.00  0.00    -0.239 NA
ATOM      3  H   GLU A   1     -18.949  80.647  15.672  0.00  0.00    +0.142 HD
ENDBRANCH   1   2
BRANCH   1   4
ATOM      4  C   GLU A   1     -21.487  79.668  13.886  0.00  0.00    +0.224 C 
ATOM      5  O   GLU A   1     -22.572  79.777  13.324  0.00  0.00    -0.287 OA
ENDBRANCH   1   4
BRANCH   1   6
ATOM      6  CB  GLU A   1     -21.396  82.211  14.206  0.00  0.00    +0.037 C 
BRANCH   6   7
ATOM      7  CG  GLU A   1     -20.508  83.426  14.501  0.00  0.00    +0.116 C 
BRANCH   7   8
ATOM      8  CD  GLU A   1     -20.327  83.708  15.982  0.00  0.00    +0.365 C 
ATOM      9  OE2 GLU A   1     -20.934  83.008  16.814  0.00  0.00    -0.246 OA
ATOM     10  OE1 GLU A   1     -19.573  84.642  16.318  0.00  0.00    -0.246 OA
ENDBRANCH   7   8
ENDBRANCH   6   7
ENDBRANCH   1   6
TORSDOF 5
REMARK  Name = ../refined-set-2016/4cpy/4cpy_pocket.pdb
REMARK  177 active torsions:
REMARK  status: ('A' for Active; 'I' for Inactive)
REMARK    1  A    between atoms: _1  and  _3
REMARK    2  A    between atoms: _3  and  _4
REMARK    3  A    between atoms: _3  and  _6
REMARK    4  A    between atoms: _6  and  _7
REMARK    5  A    between atoms: _7  and  _8
REMARK    6  A    between atoms: _8  and  _9
REMARK    7  A    between atoms: _18  and  _20
REMARK    8  A    between atoms: _20  and  _21
REMARK    9  A    between atoms: _20  and  _23
REMARK   10  A    between atoms: _23  and  _24
REMARK   11  A    between atoms: _24  and  _25
REMARK   12  A    between atoms: _28  and  _30
REMARK   13  A    between atoms: _30  and  _31
REMARK   14  A    between atoms: _30  and  _33
REMARK   15  A    between atoms: _33  and  _34
REMARK   16  A    between atoms: _37  and  _39
REMARK   17  A    between atoms: _39  and  _40
REMARK   18  A    between atoms: _39  and  _42
REMARK   19  A    between atoms: _42  and  _43
REMARK   20  A    between atoms: _48  and  _50
REMARK   21  A    between atoms: _50  and  _51
REMARK   22  A    between atoms: _50  and  _53
REMARK   23  A    between atoms: _53  and  _54
REMARK   24  A    between atoms: _54  and  _55
REMARK   25  A    between atoms: _55  and  _56
REMARK   26  A    between atoms: _65  and  _67
REMARK   27  A    between atoms: _67  and  _68
REMARK   28  A    between atoms: _70  and  _72
REMARK   29  A    between atoms: _72  and  _73
REMARK   30  A    between atoms: _72  and  _75
REMARK   31  A    between atoms: _75  and  _76
REMARK   32  A    between atoms: _79  and  _81
REMARK   33  A    between atoms: _81  and  _82
REMARK   34  A    between atoms: _81  and  _84
REMARK   35  A    between atoms: _84  and  _85
REMARK   36  A    between atoms: _85  and  _86
REMARK   37  A    between atoms: _86  and  _87
REMARK   38  A    between atoms: _96  and  _98
REMARK   39  A    between atoms: _98  and  _99
REMARK   40  A    between atoms: _98  and  _101
REMARK   41  A    between atoms: _101  and  _102
REMARK   42  A    between atoms: _107  and  _109
REMARK   43  A    between atoms: _109  and  _110
REMARK   44  A    between atoms: _109  and  _112
REMARK   45  A    between atoms: _112  and  _113
REMARK   46  A    between atoms: _113  and  _114
REMARK   47  A    between atoms: _114  and  _115
REMARK   48  A    between atoms: _124  and  _126
REMARK   49  A    between atoms: _126  and  _127
REMARK   50  A    between atoms: _126  and  _129
REMARK   51  A    between atoms: _129  and  _130
REMARK   52  A    between atoms: _140  and  _142
REMARK   53  A    between atoms: _142  and  _143
REMARK   54  A    between atoms: _142  and  _145
REMARK   55  A    between atoms: _145  and  _146
REMARK   56  A    between atoms: _148  and  _150
REMARK   57  A    between atoms: _150  and  _151
REMARK   58  A    between atoms: _153  and  _155
REMARK   59  A    between atoms: _155  and  _156
REMARK   60  A    between atoms: _155  and  _158
REMARK   61  A    between atoms: _161  and  _163
REMARK   62  A    between atoms: _163  and  _164
REMARK   63  A    between atoms: _163  and  _166
REMARK   64  A    between atoms: _166  and  _167
REMARK   65  A    between atoms: _170  and  _172
REMARK   66  A    between atoms: _172  and  _173
REMARK   67  A    between atoms: _172  and  _175
REMARK   68  A    between atoms: _175  and  _176
REMARK   69  A    between atoms: _179  and  _181
REMARK   70  A    between atoms: _181  and  _182
REMARK   71  A    between atoms: _181  and  _184
REMARK   72  A    between atoms: _184  and  _185
REMARK   73  A    between atoms: _188  and  _190
REMARK   74  A    between atoms: _190  and  _191
REMARK   75  A    between atoms: _190  and  _193
REMARK   76  A    between atoms: _193  and  _194
REMARK   77  A    between atoms: _194  and  _195
REMARK   78  A    between atoms: _195  and  _196
REMARK   79  A    between atoms: _205  and  _207
REMARK   80  A    between atoms: _207  and  _208
REMARK   81  A    between atoms: _207  and  _210
REMARK   82  A    between atoms: _210  and  _211
REMARK   83  A    between atoms: _214  and  _216
REMARK   84  A    between atoms: _216  and  _217
REMARK   85  A    between atoms: _216  and  _219
REMARK   86  A    between atoms: _219  and  _220
REMARK   87  A    between atoms: _220  and  _221
REMARK   88  A    between atoms: _224  and  _226
REMARK   89  A    between atoms: _226  and  _227
REMARK   90  A    between atoms: _226  and  _229
REMARK   91  A    between atoms: _229  and  _230
REMARK   92  A    between atoms: _233  and  _235
REMARK   93  A    between atoms: _235  and  _236
REMARK   94  A    between atoms: _238  and  _240
REMARK   95  A    between atoms: _240  and  _241
REMARK   96  A    between atoms: _240  and  _243
REMARK   97  A    between atoms: _243  and  _244
REMARK   98  A    between atoms: _246  and  _248
REMARK   99  A    between atoms: _248  and  _249
REMARK  100  A    between atoms: _252  and  _254
REMARK  101  A    between atoms: _254  and  _255
REMARK  102  A    between atoms: _254  and  _257
REMARK  103  A    between atoms: _257  and  _258
REMARK  104  A    between atoms: _260  and  _262
REMARK  105  A    between atoms: _262  and  _263
REMARK  106  A    between atoms: _262  and  _265
REMARK  107  A    between atoms: _265  and  _266
REMARK  108  A    between atoms: _268  and  _270
REMARK  109  A    between atoms: _270  and  _271
REMARK  110  A    between atoms: _270  and  _273
REMARK  111  A    between atoms: _273  and  _274
REMARK  112  A    between atoms: _279  and  _281
REMARK  113  A    between atoms: _281  and  _282
REMARK  114  A    between atoms: _281  and  _284
REMARK  115  A    between atoms: _284  and  _285
REMARK  116  A    between atoms: _285  and  _286
REMARK  117  A    between atoms: _289  and  _291
REMARK  118  A    between atoms: _291  and  _292
REMARK  119  A    between atoms: _291  and  _294
REMARK  120  A    between atoms: _294  and  _295
REMARK  121  A    between atoms: _295  and  _296
REMARK  122  A    between atoms: _299  and  _301
REMARK  123  A    between atoms: _301  and  _302
REMARK  124  A    between atoms: _301  and  _304
REMARK  125  A    between atoms: _304  and  _305
REMARK  126  A    between atoms: _305  and  _306
REMARK  127  A    between atoms: _306  and  _307
REMARK  128  A    between atoms: _316  and  _318
REMARK  129  A    between atoms: _318  and  _319
REMARK  130  A    between atoms: _318  and  _321
REMARK  131  A    between atoms: _321  and  _322
REMARK  132  A    between atoms: _327  and  _329
REMARK  133  A    between atoms: _329  and  _330
REMARK  134  A    between atoms: _329  and  _332
REMARK  135  A    between atoms: _332  and  _333
REMARK  136  A    between atoms: _336  and  _338
REMARK  137  A    between atoms: _338  and  _339
REMARK  138  A    between atoms: _341  and  _343
REMARK  139  A    between atoms: _343  and  _344
REMARK  140  A    between atoms: _346  and  _348
REMARK  141  A    between atoms: _348  and  _349
REMARK  142  A    between atoms: _348  and  _351
REMARK  143  A    between atoms: _351  and  _352
REMARK  144  A    between atoms: _355  and  _357
REMARK  145  A    between atoms: _357  and  _358
REMARK  146  A    between atoms: _357  and  _360
REMARK  147  A    between atoms: _360  and  _361
REMARK  148  A    between atoms: _361  and  _362
REMARK  149  A    between atoms: _362  and  _363
REMARK  150  A    between atoms: _363  and  _364
REMARK  151  A    between atoms: _368  and  _370
REMARK  152  A    between atoms: _370  and  _371
REMARK  153  A    between atoms: _370  and  _373
REMARK  154  A    between atoms: _373  and  _374
REMARK  155  A    between atoms: _374  and  _375
REMARK  156  A    between atoms: _375  and  _376
REMARK  157  A    between atoms: _385  and  _387
REMARK  158  A    between atoms: _387  and  _388
REMARK  159  A    between atoms: _387  and  _390
REMARK  160  A    between atoms: _390  and  _391
REMARK  161  A    between atoms: _401  and  _403
REMARK  162  A    between atoms: _403  and  _404
REMARK  163  A    between atoms: _403  and  _406
REMARK  164  A    between atoms: _406  and  _407
REMARK  165  A    between atoms: _412  and  _413
REMARK  166  A    between atoms: _415  and  _417
REMARK  167  A    between atoms: _417  and  _418
REMARK  168  A    between atoms: _417  and  _420
REMARK  169  A    between atoms: _420  and  _421
REMARK  170  A    between atoms: _421  and  _422
REMARK  171  A    between atoms: _425  and  _427
REMARK  172  A    between atoms: _427  and  _428
REMARK  173  A    between atoms: _427  and  _430
REMARK  174  A    between atoms: _433  and  _435
REMARK  175  A    between atoms: _435  and  _436
REMARK  176  A    between atoms: _435  and  _438
REMARK  177  A    between atoms: _438  and  _439
REMARK                            x       y       z     vdW  Elec       q    Type
REMARK                         _______ _______ _______ _____ _____    ______ ____
ROOT
ATOM      1  CA  THR A   1      -9.733  84.667  14.543  0.00  0.00    +0.160 C 
ENDROOT
BRANCH   1   2
ATOM      2  N   THR A   1     -10.440  83.548  15.146  0.00  0.00    -0.237 NA
ATOM      3  H   THR A   1     -11.213  83.722  15.820  0.00  0.00    +0.142 HD
ENDBRANCH   1   2
BRANCH   1   4
ATOM      4  C   THR A   1      -9.658  85.835  15.513  0.00  0.00    +0.227 C 
ATOM      5  O   THR A   1     -10.322  85.836  16.545  0.00  0.00    -0.287 OA
ENDBRANCH   1   4
BRANCH   1   6
ATOM      6  CB  THR A   1     -10.350  85.092  13.196  0.00  0.00    +0.134 C 
ATOM      7  CG2 THR A   1     -11.595  85.928  13.380  0.00  0.00    +0.034 C 
BRANCH   6   8
ATOM      8  OG1 THR A   1      -9.379  85.839  12.450  0.00  0.00    -0.383 OA
ATOM      9  HG1 THR A   1      -9.771  86.114  11.584  0.00  0.00    +0.210 HD
ENDBRANCH   6   8
ENDBRANCH   1   6
TORSDOF 4
REMARK  Name = ../refined-set-2016/4cpy/4cpy_pocket.pdb
REMARK  177 active torsions:
REMARK  status: ('A' for Active; 'I' for Inactive)
REMARK    1  A    between atoms: _1  and  _3
REMARK    2  A    between atoms: _3  and  _4
REMARK    3  A    between atoms: _3  and  _6
REMARK    4  A    between atoms: _6  and  _7
REMARK    5  A    between atoms: _7  and  _8
REMARK    6  A    between atoms: _8  and  _9
REMARK    7  A    between atoms: _18  and  _20
REMARK    8  A    between atoms: _20  and  _21
REMARK    9  A    between atoms: _20  and  _23
REMARK   10  A    between atoms: _23  and  _24
REMARK   11  A    between atoms: _24  and  _25
REMARK   12  A    between atoms: _28  and  _30
REMARK   13  A    between atoms: _30  and  _31
REMARK   14  A    between atoms: _30  and  _33
REMARK   15  A    between atoms: _33  and  _34
REMARK   16  A    between atoms: _37  and  _39
REMARK   17  A    between atoms: _39  and  _40
REMARK   18  A    between atoms: _39  and  _42
REMARK   19  A    between atoms: _42  and  _43
REMARK   20  A    between atoms: _48  and  _50
REMARK   21  A    between atoms: _50  and  _51
REMARK   22  A    between atoms: _50  and  _53
REMARK   23  A    between atoms: _53  and  _54
REMARK   24  A    between atoms: _54  and  _55
REMARK   25  A    between atoms: _55  and  _56
REMARK   26  A    between atoms: _65  and  _67
REMARK   27  A    between atoms: _67  and  _68
REMARK   28  A    between atoms: _70  and  _72
REMARK   29  A    between atoms: _72  and  _73
REMARK   30  A    between atoms: _72  and  _75
REMARK   31  A    between atoms: _75  and  _76
REMARK   32  A    between atoms: _79  and  _81
REMARK   33  A    between atoms: _81  and  _82
REMARK   34  A    between atoms: _81  and  _84
REMARK   35  A    between atoms: _84  and  _85
REMARK   36  A    between atoms: _85  and  _86
REMARK   37  A    between atoms: _86  and  _87
REMARK   38  A    between atoms: _96  and  _98
REMARK   39  A    between atoms: _98  and  _99
REMARK   40  A    between atoms: _98  and  _101
REMARK   41  A    between atoms: _101  and  _102
REMARK   42  A    between atoms: _107  and  _109
REMARK   43  A    between atoms: _109  and  _110
REMARK   44  A    between atoms: _109  and  _112
REMARK   45  A    between atoms: _112  and  _113
REMARK   46  A    between atoms: _113  and  _114
REMARK   47  A    between atoms: _114  and  _115
REMARK   48  A    between atoms: _124  and  _126
REMARK   49  A    between atoms: _126  and  _127
REMARK   50  A    between atoms: _126  and  _129
REMARK   51  A    between atoms: _129  and  _130
REMARK   52  A    between atoms: _140  and  _142
REMARK   53  A    between atoms: _142  and  _143
REMARK   54  A    between atoms: _142  and  _145
REMARK   55  A    between atoms: _145  and  _146
REMARK   56  A    between atoms: _148  and  _150
REMARK   57  A    between atoms: _150  and  _151
REMARK   58  A    between atoms: _153  and  _155
REMARK   59  A    between atoms: _155  and  _156
REMARK   60  A    between atoms: _155  and  _158
REMARK   61  A    between atoms: _161  and  _163
REMARK   62  A    between atoms: _163  and  _164
REMARK   63  A    between atoms: _163  and  _166
REMARK   64  A    between atoms: _166  and  _167
REMARK   65  A    between atoms: _170  and  _172
REMARK   66  A    between atoms: _172  and  _173
REMARK   67  A    between atoms: _172  and  _175
REMARK   68  A    between atoms: _175  and  _176
REMARK   69  A    between atoms: _179  and  _181
REMARK   70  A    between atoms: _181  and  _182
REMARK   71  A    between atoms: _181  and  _184
REMARK   72  A    between atoms: _184  and  _185
REMARK   73  A    between atoms: _188  and  _190
REMARK   74  A    between atoms: _190  and  _191
REMARK   75  A    between atoms: _190  and  _193
REMARK   76  A    between atoms: _193  and  _194
REMARK   77  A    between atoms: _194  and  _195
REMARK   78  A    between atoms: _195  and  _196
REMARK   79  A    between atoms: _205  and  _207
REMARK   80  A    between atoms: _207  and  _208
REMARK   81  A    between atoms: _207  and  _210
REMARK   82  A    between atoms: _210  and  _211
REMARK   83  A    between atoms: _214  and  _216
REMARK   84  A    between atoms: _216  and  _217
REMARK   85  A    between atoms: _216  and  _219
REMARK   86  A    between atoms: _219  and  _220
REMARK   87  A    between atoms: _220  and  _221
REMARK   88  A    between atoms: _224  and  _226
REMARK   89  A    between atoms: _226  and  _227
REMARK   90  A    between atoms: _226  and  _229
REMARK   91  A    between atoms: _229  and  _230
REMARK   92  A    between atoms: _233  and  _235
REMARK   93  A    between atoms: _235  and  _236
REMARK   94  A    between atoms: _238  and  _240
REMARK   95  A    between atoms: _240  and  _241
REMARK   96  A    between atoms: _240  and  _243
REMARK   97  A    between atoms: _243  and  _244
REMARK   98  A    between atoms: _246  and  _248
REMARK   99  A    between atoms: _248  and  _249
REMARK  100  A    between atoms: _252  and  _254
REMARK  101  A    between atoms: _254  and  _255
REMARK  102  A    between atoms: _254  and  _257
REMARK  103  A    between atoms: _257  and  _258
REMARK  104  A    between atoms: _260  and  _262
REMARK  105  A    between atoms: _262  and  _263
REMARK  106  A    between atoms: _262  and  _265
REMARK  107  A    between atoms: _265  and  _266
REMARK  108  A    between atoms: _268  and  _270
REMARK  109  A    between atoms: _270  and  _271
REMARK  110  A    between atoms: _270  and  _273
REMARK  111  A    between atoms: _273  and  _274
REMARK  112  A    between atoms: _279  and  _281
REMARK  113  A    between atoms: _281  and  _282
REMARK  114  A    between atoms: _281  and  _284
REMARK  115  A    between atoms: _284  and  _285
REMARK  116  A    between atoms: _285  and  _286
REMARK  117  A    between atoms: _289  and  _291
REMARK  118  A    between atoms: _291  and  _292
REMARK  119  A    between atoms: _291  and  _294
REMARK  120  A    between atoms: _294  and  _295
REMARK  121  A    between atoms: _295  and  _296
REMARK  122  A    between atoms: _299  and  _301
REMARK  123  A    between atoms: _301  and  _302
REMARK  124  A    between atoms: _301  and  _304
REMARK  125  A    between atoms: _304  and  _305
REMARK  126  A    between atoms: _305  and  _306
REMARK  127  A    between atoms: _306  and  _307
REMARK  128  A    between atoms: _316  and  _318
REMARK  129  A    between atoms: _318  and  _319
REMARK  130  A    between atoms: _318  and  _321
REMARK  131  A    between atoms: _321  and  _322
REMARK  132  A    between atoms: _327  and  _329
REMARK  133  A    between atoms: _329  and  _330
REMARK  134  A    between atoms: _329  and  _332
REMARK  135  A    between atoms: _332  and  _333
REMARK  136  A    between atoms: _336  and  _338
REMARK  137  A    between atoms: _338  and  _339
REMARK  138  A    between atoms: _341  and  _343
REMARK  139  A    between atoms: _343  and  _344
REMARK  140  A    between atoms: _346  and  _348
REMARK  141  A    between atoms: _348  and  _349
REMARK  142  A    between atoms: _348  and  _351
REMARK  143  A    between atoms: _351  and  _352
REMARK  144  A    between atoms: _355  and  _357
REMARK  145  A    between atoms: _357  and  _358
REMARK  146  A    between atoms: _357  and  _360
REMARK  147  A    between atoms: _360  and  _361
REMARK  148  A    between atoms: _361  and  _362
REMARK  149  A    between atoms: _362  and  _363
REMARK  150  A    between atoms: _363  and  _364
REMARK  151  A    between atoms: _368  and  _370
REMARK  152  A    between atoms: _370  and  _371
REMARK  153  A    between atoms: _370  and  _373
REMARK  154  A    between atoms: _373  and  _374
REMARK  155  A    between atoms: _374  and  _375
REMARK  156  A    between atoms: _375  and  _376
REMARK  157  A    between atoms: _385  and  _387
REMARK  158  A    between atoms: _387  and  _388
REMARK  159  A    between atoms: _387  and  _390
REMARK  160  A    between atoms: _390  and  _391
REMARK  161  A    between atoms: _401  and  _403
REMARK  162  A    between atoms: _403  and  _404
REMARK  163  A    between atoms: _403  and  _406
REMARK  164  A    between atoms: _406  and  _407
REMARK  165  A    between atoms: _412  and  _413
REMARK  166  A    between atoms: _415  and  _417
REMARK  167  A    between atoms: _417  and  _418
REMARK  168  A    between atoms: _417  and  _420
REMARK  169  A    between atoms: _420  and  _421
REMARK  170  A    between atoms: _421  and  _422
REMARK  171  A    between atoms: _425  and  _427
REMARK  172  A    between atoms: _427  and  _428
REMARK  173  A    between atoms: _427  and  _430
REMARK  174  A    between atoms: _433  and  _435
REMARK  175  A    between atoms: _435  and  _436
REMARK  176  A    between atoms: _435  and  _438
REMARK  177  A    between atoms: _438  and  _439
REMARK                            x       y       z     vdW  Elec       q    Type
REMARK                         _______ _______ _______ _____ _____    ______ ____
ROOT
ATOM      1  C   SER A   2     -10.955  93.983  12.235  0.00  0.00    +0.243 C 
ATOM      2  N   ALA A   3     -12.190  94.381  12.513  0.00  0.00    -0.297 N 
ATOM      3  H   ALA A   3     -12.372  94.861  13.417  0.00  0.00    +0.150 HD
ATOM      4  O   SER A   2     -10.687  93.292  11.264  0.00  0.00    -0.273 OA
ENDROOT
BRANCH   2   5
ATOM      5  CA  ALA A   3     -13.305  94.167  11.590  0.00  0.00    +0.149 C 
ATOM      6  CB  ALA A   3     -14.581  94.750  12.184  0.00  0.00    +0.031 C 
BRANCH   5   7
ATOM      7  C   ALA A   3     -13.083  94.744  10.188  0.00  0.00    +0.241 C 
ATOM      8  N   SER A   4     -12.349  95.855  10.078  0.00  0.00    -0.296 N 
ATOM      9  H   SER A   4     -11.919  96.258  10.935  0.00  0.00    +0.150 HD
ATOM     10  O   ALA A   3     -13.607  94.200   9.224  0.00  0.00    -0.273 OA
BRANCH   8  11
ATOM     11  CA  SER A   4     -12.128  96.525   8.796  0.00  0.00    +0.166 C 
BRANCH  11  12
ATOM     12  C   SER A   4     -10.654  96.491   8.382  0.00  0.00    +0.229 C 
ATOM     13  O   SER A   4     -10.255  97.153   7.422  0.00  0.00    -0.286 OA
ENDBRANCH  11  12
BRANCH  11  14
ATOM     14  CB  SER A   4     -12.583  97.976   8.900  0.00  0.00    +0.165 C 
BRANCH  14  15
ATOM     15  OG  SER A   4     -11.779  98.659   9.855  0.00  0.00    -0.380 OA
ATOM     16  H   SER A   4     -12.076  99.601   9.921  0.00  0.00    +0.211 HD
ENDBRANCH  14  15
ENDBRANCH  11  14
ENDBRANCH   8  11
ENDBRANCH   5   7
ENDBRANCH   2   5
BRANCH   1  17
ATOM     17  CA  SER A   2      -9.865  94.470  13.188  0.00  0.00    +0.178 C 
BRANCH  17  20
ATOM     18  C   GLY A   1      -9.200  92.384  14.294  0.00  0.00    +0.240 C 
ATOM     19  O   GLY A   1     -10.337  92.155  14.713  0.00  0.00    -0.274 OA
ATOM     20  N   SER A   2      -8.889  93.437  13.542  0.00  0.00    -0.295 N 
ATOM     21  H   SER A   2      -7.914  93.530  13.192  0.00  0.00    +0.150 HD
BRANCH  18  22
ATOM     22  CA  GLY A   1      -8.062  91.433  14.588  0.00  0.00    +0.169 C 
BRANCH  22  23
ATOM     23  N   GLY A   1      -8.514  90.278  15.364  0.00  0.00    -0.236 NA
ATOM     24  H   GLY A   1      -9.252  90.411  16.085  0.00  0.00    +0.142 HD
ENDBRANCH  22  23
ENDBRANCH  18  22
ENDBRANCH  17  20
BRANCH  17  25
ATOM     25  CB  SER A   2      -9.150  95.659  12.548  0.00  0.00    +0.166 C 
BRANCH  25  26
ATOM     26  OG  SER A   2     -10.082  96.616  12.092  0.00  0.00    -0.380 OA
ATOM     27  H   SER A   2      -9.599  97.376  11.682  0.00  0.00    +0.211 HD
ENDBRANCH  25  26
ENDBRANCH  17  25
ENDBRANCH   1  17
TORSDOF 12
REMARK  Name = ../refined-set-2016/4cpy/4cpy_pocket.pdb
REMARK  177 active torsions:
REMARK  status: ('A' for Active; 'I' for Inactive)
REMARK    1  A    between atoms: _1  and  _3
REMARK    2  A    between atoms: _3  and  _4
REMARK    3  A    between atoms: _3  and  _6
REMARK    4  A    between atoms: _6  and  _7
REMARK    5  A    between atoms: _7  and  _8
REMARK    6  A    between atoms: _8  and  _9
REMARK    7  A    between atoms: _18  and  _20
REMARK    8  A    between atoms: _20  and  _21
REMARK    9  A    between atoms: _20  and  _23
REMARK   10  A    between atoms: _23  and  _24
REMARK   11  A    between atoms: _24  and  _25
REMARK   12  A    between atoms: _28  and  _30
REMARK   13  A    between atoms: _30  and  _31
REMARK   14  A    between atoms: _30  and  _33
REMARK   15  A    between atoms: _33  and  _34
REMARK   16  A    between atoms: _37  and  _39
REMARK   17  A    between atoms: _39  and  _40
REMARK   18  A    between atoms: _39  and  _42
REMARK   19  A    between atoms: _42  and  _43
REMARK   20  A    between atoms: _48  and  _50
REMARK   21  A    between atoms: _50  and  _51
REMARK   22  A    between atoms: _50  and  _53
REMARK   23  A    between atoms: _53  and  _54
REMARK   24  A    between atoms: _54  and  _55
REMARK   25  A    between atoms: _55  and  _56
REMARK   26  A    between atoms: _65  and  _67
REMARK   27  A    between atoms: _67  and  _68
REMARK   28  A    between atoms: _70  and  _72
REMARK   29  A    between atoms: _72  and  _73
REMARK   30  A    between atoms: _72  and  _75
REMARK   31  A    between atoms: _75  and  _76
REMARK   32  A    between atoms: _79  and  _81
REMARK   33  A    between atoms: _81  and  _82
REMARK   34  A    between atoms: _81  and  _84
REMARK   35  A    between atoms: _84  and  _85
REMARK   36  A    between atoms: _85  and  _86
REMARK   37  A    between atoms: _86  and  _87
REMARK   38  A    between atoms: _96  and  _98
REMARK   39  A    between atoms: _98  and  _99
REMARK   40  A    between atoms: _98  and  _101
REMARK   41  A    between atoms: _101  and  _102
REMARK   42  A    between atoms: _107  and  _109
REMARK   43  A    between atoms: _109  and  _110
REMARK   44  A    between atoms: _109  and  _112
REMARK   45  A    between atoms: _112  and  _113
REMARK   46  A    between atoms: _113  and  _114
REMARK   47  A    between atoms: _114  and  _115
REMARK   48  A    between atoms: _124  and  _126
REMARK   49  A    between atoms: _126  and  _127
REMARK   50  A    between atoms: _126  and  _129
REMARK   51  A    between atoms: _129  and  _130
REMARK   52  A    between atoms: _140  and  _142
REMARK   53  A    between atoms: _142  and  _143
REMARK   54  A    between atoms: _142  and  _145
REMARK   55  A    between atoms: _145  and  _146
REMARK   56  A    between atoms: _148  and  _150
REMARK   57  A    between atoms: _150  and  _151
REMARK   58  A    between atoms: _153  and  _155
REMARK   59  A    between atoms: _155  and  _156
REMARK   60  A    between atoms: _155  and  _158
REMARK   61  A    between atoms: _161  and  _163
REMARK   62  A    between atoms: _163  and  _164
REMARK   63  A    between atoms: _163  and  _166
REMARK   64  A    between atoms: _166  and  _167
REMARK   65  A    between atoms: _170  and  _172
REMARK   66  A    between atoms: _172  and  _173
REMARK   67  A    between atoms: _172  and  _175
REMARK   68  A    between atoms: _175  and  _176
REMARK   69  A    between atoms: _179  and  _181
REMARK   70  A    between atoms: _181  and  _182
REMARK   71  A    between atoms: _181  and  _184
REMARK   72  A    between atoms: _184  and  _185
REMARK   73  A    between atoms: _188  and  _190
REMARK   74  A    between atoms: _190  and  _191
REMARK   75  A    between atoms: _190  and  _193
REMARK   76  A    between atoms: _193  and  _194
REMARK   77  A    between atoms: _194  and  _195
REMARK   78  A    between atoms: _195  and  _196
REMARK   79  A    between atoms: _205  and  _207
REMARK   80  A    between atoms: _207  and  _208
REMARK   81  A    between atoms: _207  and  _210
REMARK   82  A    between atoms: _210  and  _211
REMARK   83  A    between atoms: _214  and  _216
REMARK   84  A    between atoms: _216  and  _217
REMARK   85  A    between atoms: _216  and  _219
REMARK   86  A    between atoms: _219  and  _220
REMARK   87  A    between atoms: _220  and  _221
REMARK   88  A    between atoms: _224  and  _226
REMARK   89  A    between atoms: _226  and  _227
REMARK   90  A    between atoms: _226  and  _229
REMARK   91  A    between atoms: _229  and  _230
REMARK   92  A    between atoms: _233  and  _235
REMARK   93  A    between atoms: _235  and  _236
REMARK   94  A    between atoms: _238  and  _240
REMARK   95  A    between atoms: _240  and  _241
REMARK   96  A    between atoms: _240  and  _243
REMARK   97  A    between atoms: _243  and  _244
REMARK   98  A    between atoms: _246  and  _248
REMARK   99  A    between atoms: _248  and  _249
REMARK  100  A    between atoms: _252  and  _254
REMARK  101  A    between atoms: _254  and  _255
REMARK  102  A    between atoms: _254  and  _257
REMARK  103  A    between atoms: _257  and  _258
REMARK  104  A    between atoms: _260  and  _262
REMARK  105  A    between atoms: _262  and  _263
REMARK  106  A    between atoms: _262  and  _265
REMARK  107  A    between atoms: _265  and  _266
REMARK  108  A    between atoms: _268  and  _270
REMARK  109  A    between atoms: _270  and  _271
REMARK  110  A    between atoms: _270  and  _273
REMARK  111  A    between atoms: _273  and  _274
REMARK  112  A    between atoms: _279  and  _281
REMARK  113  A    between atoms: _281  and  _282
REMARK  114  A    between atoms: _281  and  _284
REMARK  115  A    between atoms: _284  and  _285
REMARK  116  A    between atoms: _285  and  _286
REMARK  117  A    between atoms: _289  and  _291
REMARK  118  A    between atoms: _291  and  _292
REMARK  119  A    between atoms: _291  and  _294
REMARK  120  A    between atoms: _294  and  _295
REMARK  121  A    between atoms: _295  and  _296
REMARK  122  A    between atoms: _299  and  _301
REMARK  123  A    between atoms: _301  and  _302
REMARK  124  A    between atoms: _301  and  _304
REMARK  125  A    between atoms: _304  and  _305
REMARK  126  A    between atoms: _305  and  _306
REMARK  127  A    between atoms: _306  and  _307
REMARK  128  A    between atoms: _316  and  _318
REMARK  129  A    between atoms: _318  and  _319
REMARK  130  A    between atoms: _318  and  _321
REMARK  131  A    between atoms: _321  and  _322
REMARK  132  A    between atoms: _327  and  _329
REMARK  133  A    between atoms: _329  and  _330
REMARK  134  A    between atoms: _329  and  _332
REMARK  135  A    between atoms: _332  and  _333
REMARK  136  A    between atoms: _336  and  _338
REMARK  137  A    between atoms: _338  and  _339
REMARK  138  A    between atoms: _341  and  _343
REMARK  139  A    between atoms: _343  and  _344
REMARK  140  A    between atoms: _346  and  _348
REMARK  141  A    between atoms: _348  and  _349
REMARK  142  A    between atoms: _348  and  _351
REMARK  143  A    between atoms: _351  and  _352
REMARK  144  A    between atoms: _355  and  _357
REMARK  145  A    between atoms: _357  and  _358
REMARK  146  A    between atoms: _357  and  _360
REMARK  147  A    between atoms: _360  and  _361
REMARK  148  A    between atoms: _361  and  _362
REMARK  149  A    between atoms: _362  and  _363
REMARK  150  A    between atoms: _363  and  _364
REMARK  151  A    between atoms: _368  and  _370
REMARK  152  A    between atoms: _370  and  _371
REMARK  153  A    between atoms: _370  and  _373
REMARK  154  A    between atoms: _373  and  _374
REMARK  155  A    between atoms: _374  and  _375
REMARK  156  A    between atoms: _375  and  _376
REMARK  157  A    between atoms: _385  and  _387
REMARK  158  A    between atoms: _387  and  _388
REMARK  159  A    between atoms: _387  and  _390
REMARK  160  A    between atoms: _390  and  _391
REMARK  161  A    between atoms: _401  and  _403
REMARK  162  A    between atoms: _403  and  _404
REMARK  163  A    between atoms: _403  and  _406
REMARK  164  A    between atoms: _406  and  _407
REMARK  165  A    between atoms: _412  and  _413
REMARK  166  A    between atoms: _415  and  _417
REMARK  167  A    between atoms: _417  and  _418
REMARK  168  A    between atoms: _417  and  _420
REMARK  169  A    between atoms: _420  and  _421
REMARK  170  A    between atoms: _421  and  _422
REMARK  171  A    between atoms: _425  and  _427
REMARK  172  A    between atoms: _427  and  _428
REMARK  173  A    between atoms: _427  and  _430
REMARK  174  A    between atoms: _433  and  _435
REMARK  175  A    between atoms: _435  and  _436
REMARK  176  A    between atoms: _435  and  _438
REMARK  177  A    between atoms: _438  and  _439
REMARK                            x       y       z     vdW  Elec       q    Type
REMARK                         _______ _______ _______ _____ _____    ______ ____
ROOT
ATOM      1  CA  SER A   1      -7.781  89.312  10.945  0.00  0.00    +0.163 C 
ENDROOT
BRANCH   1   2
ATOM      2  N   SER A   1      -7.331  90.322   9.982  0.00  0.00    -0.237 NA
ATOM      3  H   SER A   1      -7.333  90.086   8.969  0.00  0.00    +0.142 HD
ENDBRANCH   1   2
BRANCH   1   4
ATOM      4  CB  SER A   1      -7.240  87.937  10.516  0.00  0.00    +0.227 C 
ATOM      5  OG  SER A   1      -7.879  87.232   9.744  0.00  0.00    -0.287 OA
ENDBRANCH   1   4
BRANCH   1   6
ATOM      6  C   SER A   1      -9.318  89.293  11.047  0.00  0.00    +0.162 C 
BRANCH   6   7
ATOM      7  O   SER A   1      -9.815  90.447  11.716  0.00  0.00    -0.380 OA
ATOM      8  H   SER A   1      -9.545  91.258  11.217  0.00  0.00    +0.211 HD
ENDBRANCH   6   7
ENDBRANCH   1   6
TORSDOF 4
REMARK  Name = ../refined-set-2016/4cpy/4cpy_pocket.pdb
REMARK  177 active torsions:
REMARK  status: ('A' for Active; 'I' for Inactive)
REMARK    1  A    between atoms: _1  and  _3
REMARK    2  A    between atoms: _3  and  _4
REMARK    3  A    between atoms: _3  and  _6
REMARK    4  A    between atoms: _6  and  _7
REMARK    5  A    between atoms: _7  and  _8
REMARK    6  A    between atoms: _8  and  _9
REMARK    7  A    between atoms: _18  and  _20
REMARK    8  A    between atoms: _20  and  _21
REMARK    9  A    between atoms: _20  and  _23
REMARK   10  A    between atoms: _23  and  _24
REMARK   11  A    between atoms: _24  and  _25
REMARK   12  A    between atoms: _28  and  _30
REMARK   13  A    between atoms: _30  and  _31
REMARK   14  A    between atoms: _30  and  _33
REMARK   15  A    between atoms: _33  and  _34
REMARK   16  A    between atoms: _37  and  _39
REMARK   17  A    between atoms: _39  and  _40
REMARK   18  A    between atoms: _39  and  _42
REMARK   19  A    between atoms: _42  and  _43
REMARK   20  A    between atoms: _48  and  _50
REMARK   21  A    between atoms: _50  and  _51
REMARK   22  A    between atoms: _50  and  _53
REMARK   23  A    between atoms: _53  and  _54
REMARK   24  A    between atoms: _54  and  _55
REMARK   25  A    between atoms: _55  and  _56
REMARK   26  A    between atoms: _65  and  _67
REMARK   27  A    between atoms: _67  and  _68
REMARK   28  A    between atoms: _70  and  _72
REMARK   29  A    between atoms: _72  and  _73
REMARK   30  A    between atoms: _72  and  _75
REMARK   31  A    between atoms: _75  and  _76
REMARK   32  A    between atoms: _79  and  _81
REMARK   33  A    between atoms: _81  and  _82
REMARK   34  A    between atoms: _81  and  _84
REMARK   35  A    between atoms: _84  and  _85
REMARK   36  A    between atoms: _85  and  _86
REMARK   37  A    between atoms: _86  and  _87
REMARK   38  A    between atoms: _96  and  _98
REMARK   39  A    between atoms: _98  and  _99
REMARK   40  A    between atoms: _98  and  _101
REMARK   41  A    between atoms: _101  and  _102
REMARK   42  A    between atoms: _107  and  _109
REMARK   43  A    between atoms: _109  and  _110
REMARK   44  A    between atoms: _109  and  _112
REMARK   45  A    between atoms: _112  and  _113
REMARK   46  A    between atoms: _113  and  _114
REMARK   47  A    between atoms: _114  and  _115
REMARK   48  A    between atoms: _124  and  _126
REMARK   49  A    between atoms: _126  and  _127
REMARK   50  A    between atoms: _126  and  _129
REMARK   51  A    between atoms: _129  and  _130
REMARK   52  A    between atoms: _140  and  _142
REMARK   53  A    between atoms: _142  and  _143
REMARK   54  A    between atoms: _142  and  _145
REMARK   55  A    between atoms: _145  and  _146
REMARK   56  A    between atoms: _148  and  _150
REMARK   57  A    between atoms: _150  and  _151
REMARK   58  A    between atoms: _153  and  _155
REMARK   59  A    between atoms: _155  and  _156
REMARK   60  A    between atoms: _155  and  _158
REMARK   61  A    between atoms: _161  and  _163
REMARK   62  A    between atoms: _163  and  _164
REMARK   63  A    between atoms: _163  and  _166
REMARK   64  A    between atoms: _166  and  _167
REMARK   65  A    between atoms: _170  and  _172
REMARK   66  A    between atoms: _172  and  _173
REMARK   67  A    between atoms: _172  and  _175
REMARK   68  A    between atoms: _175  and  _176
REMARK   69  A    between atoms: _179  and  _181
REMARK   70  A    between atoms: _181  and  _182
REMARK   71  A    between atoms: _181  and  _184
REMARK   72  A    between atoms: _184  and  _185
REMARK   73  A    between atoms: _188  and  _190
REMARK   74  A    between atoms: _190  and  _191
REMARK   75  A    between atoms: _190  and  _193
REMARK   76  A    between atoms: _193  and  _194
REMARK   77  A    between atoms: _194  and  _195
REMARK   78  A    between atoms: _195  and  _196
REMARK   79  A    between atoms: _205  and  _207
REMARK   80  A    between atoms: _207  and  _208
REMARK   81  A    between atoms: _207  and  _210
REMARK   82  A    between atoms: _210  and  _211
REMARK   83  A    between atoms: _214  and  _216
REMARK   84  A    between atoms: _216  and  _217
REMARK   85  A    between atoms: _216  and  _219
REMARK   86  A    between atoms: _219  and  _220
REMARK   87  A    between atoms: _220  and  _221
REMARK   88  A    between atoms: _224  and  _226
REMARK   89  A    between atoms: _226  and  _227
REMARK   90  A    between atoms: _226  and  _229
REMARK   91  A    between atoms: _229  and  _230
REMARK   92  A    between atoms: _233  and  _235
REMARK   93  A    between atoms: _235  and  _236
REMARK   94  A    between atoms: _238  and  _240
REMARK   95  A    between atoms: _240  and  _241
REMARK   96  A    between atoms: _240  and  _243
REMARK   97  A    between atoms: _243  and  _244
REMARK   98  A    between atoms: _246  and  _248
REMARK   99  A    between atoms: _248  and  _249
REMARK  100  A    between atoms: _252  and  _254
REMARK  101  A    between atoms: _254  and  _255
REMARK  102  A    between atoms: _254  and  _257
REMARK  103  A    between atoms: _257  and  _258
REMARK  104  A    between atoms: _260  and  _262
REMARK  105  A    between atoms: _262  and  _263
REMARK  106  A    between atoms: _262  and  _265
REMARK  107  A    between atoms: _265  and  _266
REMARK  108  A    between atoms: _268  and  _270
REMARK  109  A    between atoms: _270  and  _271
REMARK  110  A    between atoms: _270  and  _273
REMARK  111  A    between atoms: _273  and  _274
REMARK  112  A    between atoms: _279  and  _281
REMARK  113  A    between atoms: _281  and  _282
REMARK  114  A    between atoms: _281  and  _284
REMARK  115  A    between atoms: _284  and  _285
REMARK  116  A    between atoms: _285  and  _286
REMARK  117  A    between atoms: _289  and  _291
REMARK  118  A    between atoms: _291  and  _292
REMARK  119  A    between atoms: _291  and  _294
REMARK  120  A    between atoms: _294  and  _295
REMARK  121  A    between atoms: _295  and  _296
REMARK  122  A    between atoms: _299  and  _301
REMARK  123  A    between atoms: _301  and  _302
REMARK  124  A    between atoms: _301  and  _304
REMARK  125  A    between atoms: _304  and  _305
REMARK  126  A    between atoms: _305  and  _306
REMARK  127  A    between atoms: _306  and  _307
REMARK  128  A    between atoms: _316  and  _318
REMARK  129  A    between atoms: _318  and  _319
REMARK  130  A    between atoms: _318  and  _321
REMARK  131  A    between atoms: _321  and  _322
REMARK  132  A    between atoms: _327  and  _329
REMARK  133  A    between atoms: _329  and  _330
REMARK  134  A    between atoms: _329  and  _332
REMARK  135  A    between atoms: _332  and  _333
REMARK  136  A    between atoms: _336  and  _338
REMARK  137  A    between atoms: _338  and  _339
REMARK  138  A    between atoms: _341  and  _343
REMARK  139  A    between atoms: _343  and  _344
REMARK  140  A    between atoms: _346  and  _348
REMARK  141  A    between atoms: _348  and  _349
REMARK  142  A    between atoms: _348  and  _351
REMARK  143  A    between atoms: _351  and  _352
REMARK  144  A    between atoms: _355  and  _357
REMARK  145  A    between atoms: _357  and  _358
REMARK  146  A    between atoms: _357  and  _360
REMARK  147  A    between atoms: _360  and  _361
REMARK  148  A    between atoms: _361  and  _362
REMARK  149  A    between atoms: _362  and  _363
REMARK  150  A    between atoms: _363  and  _364
REMARK  151  A    between atoms: _368  and  _370
REMARK  152  A    between atoms: _370  and  _371
REMARK  153  A    between atoms: _370  and  _373
REMARK  154  A    between atoms: _373  and  _374
REMARK  155  A    between atoms: _374  and  _375
REMARK  156  A    between atoms: _375  and  _376
REMARK  157  A    between atoms: _385  and  _387
REMARK  158  A    between atoms: _387  and  _388
REMARK  159  A    between atoms: _387  and  _390
REMARK  160  A    between atoms: _390  and  _391
REMARK  161  A    between atoms: _401  and  _403
REMARK  162  A    between atoms: _403  and  _404
REMARK  163  A    between atoms: _403  and  _406
REMARK  164  A    between atoms: _406  and  _407
REMARK  165  A    between atoms: _412  and  _413
REMARK  166  A    between atoms: _415  and  _417
REMARK  167  A    between atoms: _417  and  _418
REMARK  168  A    between atoms: _417  and  _420
REMARK  169  A    between atoms: _420  and  _421
REMARK  170  A    between atoms: _421  and  _422
REMARK  171  A    between atoms: _425  and  _427
REMARK  172  A    between atoms: _427  and  _428
REMARK  173  A    between atoms: _427  and  _430
REMARK  174  A    between atoms: _433  and  _435
REMARK  175  A    between atoms: _435  and  _436
REMARK  176  A    between atoms: _435  and  _438
REMARK  177  A    between atoms: _438  and  _439
REMARK                            x       y       z     vdW  Elec       q    Type
REMARK                         _______ _______ _______ _____ _____    ______ ____
ROOT
ATOM      1  CB  HIS A   1      -9.395  89.684   6.297  0.00  0.00    +0.072 C 
ENDROOT
BRANCH   1   2
ATOM      2  CG  HIS A   1     -10.390  90.085   7.338  0.00  0.00    +0.082 A 
ATOM      3  CD2 HIS A   1     -10.419  91.145   8.177  0.00  0.00    +0.115 A 
ATOM      4  NE2 HIS A   1     -11.540  91.018   8.959  0.00  0.00    -0.221 NA
ATOM      5  CE1 HIS A   1     -12.174  89.911   8.619  0.00  0.00    +0.199 A 
ATOM      6  ND1 HIS A   1     -11.501  89.332   7.639  0.00  0.00    -0.227 NA
ENDBRANCH   1   2
BRANCH   1   7
ATOM      7  CA  HIS A   1      -8.611  88.426   6.667  0.00  0.00    +0.139 C 
BRANCH   7   8
ATOM      8  N   HIS A   1      -7.339  88.339   5.952  0.00  0.00    -0.239 NA
ATOM      9  H   HIS A   1      -7.253  87.731   5.112  0.00  0.00    +0.142 HD
ENDBRANCH   7   8
BRANCH   7  10
ATOM     10  C   HIS A   1      -9.489  87.208   6.444  0.00  0.00    +0.224 C 
ATOM     11  O   HIS A   1     -10.000  86.984   5.340  0.00  0.00    -0.287 OA
ENDBRANCH   7  10
ENDBRANCH   1   7
TORSDOF 4
REMARK  Name = ../refined-set-2016/4cpy/4cpy_pocket.pdb
REMARK  177 active torsions:
REMARK  status: ('A' for Active; 'I' for Inactive)
REMARK    1  A    between atoms: _1  and  _3
REMARK    2  A    between atoms: _3  and  _4
REMARK    3  A    between atoms: _3  and  _6
REMARK    4  A    between atoms: _6  and  _7
REMARK    5  A    between atoms: _7  and  _8
REMARK    6  A    between atoms: _8  and  _9
REMARK    7  A    between atoms: _18  and  _20
REMARK    8  A    between atoms: _20  and  _21
REMARK    9  A    between atoms: _20  and  _23
REMARK   10  A    between atoms: _23  and  _24
REMARK   11  A    between atoms: _24  and  _25
REMARK   12  A    between atoms: _28  and  _30
REMARK   13  A    between atoms: _30  and  _31
REMARK   14  A    between atoms: _30  and  _33
REMARK   15  A    between atoms: _33  and  _34
REMARK   16  A    between atoms: _37  and  _39
REMARK   17  A    between atoms: _39  and  _40
REMARK   18  A    between atoms: _39  and  _42
REMARK   19  A    between atoms: _42  and  _43
REMARK   20  A    between atoms: _48  and  _50
REMARK   21  A    between atoms: _50  and  _51
REMARK   22  A    between atoms: _50  and  _53
REMARK   23  A    between atoms: _53  and  _54
REMARK   24  A    between atoms: _54  and  _55
REMARK   25  A    between atoms: _55  and  _56
REMARK   26  A    between atoms: _65  and  _67
REMARK   27  A    between atoms: _67  and  _68
REMARK   28  A    between atoms: _70  and  _72
REMARK   29  A    between atoms: _72  and  _73
REMARK   30  A    between atoms: _72  and  _75
REMARK   31  A    between atoms: _75  and  _76
REMARK   32  A    between atoms: _79  and  _81
REMARK   33  A    between atoms: _81  and  _82
REMARK   34  A    between atoms: _81  and  _84
REMARK   35  A    between atoms: _84  and  _85
REMARK   36  A    between atoms: _85  and  _86
REMARK   37  A    between atoms: _86  and  _87
REMARK   38  A    between atoms: _96  and  _98
REMARK   39  A    between atoms: _98  and  _99
REMARK   40  A    between atoms: _98  and  _101
REMARK   41  A    between atoms: _101  and  _102
REMARK   42  A    between atoms: _107  and  _109
REMARK   43  A    between atoms: _109  and  _110
REMARK   44  A    between atoms: _109  and  _112
REMARK   45  A    between atoms: _112  and  _113
REMARK   46  A    between atoms: _113  and  _114
REMARK   47  A    between atoms: _114  and  _115
REMARK   48  A    between atoms: _124  and  _126
REMARK   49  A    between atoms: _126  and  _127
REMARK   50  A    between atoms: _126  and  _129
REMARK   51  A    between atoms: _129  and  _130
REMARK   52  A    between atoms: _140  and  _142
REMARK   53  A    between atoms: _142  and  _143
REMARK   54  A    between atoms: _142  and  _145
REMARK   55  A    between atoms: _145  and  _146
REMARK   56  A    between atoms: _148  and  _150
REMARK   57  A    between atoms: _150  and  _151
REMARK   58  A    between atoms: _153  and  _155
REMARK   59  A    between atoms: _155  and  _156
REMARK   60  A    between atoms: _155  and  _158
REMARK   61  A    between atoms: _161  and  _163
REMARK   62  A    between atoms: _163  and  _164
REMARK   63  A    between atoms: _163  and  _166
REMARK   64  A    between atoms: _166  and  _167
REMARK   65  A    between atoms: _170  and  _172
REMARK   66  A    between atoms: _172  and  _173
REMARK   67  A    between atoms: _172  and  _175
REMARK   68  A    between atoms: _175  and  _176
REMARK   69  A    between atoms: _179  and  _181
REMARK   70  A    between atoms: _181  and  _182
REMARK   71  A    between atoms: _181  and  _184
REMARK   72  A    between atoms: _184  and  _185
REMARK   73  A    between atoms: _188  and  _190
REMARK   74  A    between atoms: _190  and  _191
REMARK   75  A    between atoms: _190  and  _193
REMARK   76  A    between atoms: _193  and  _194
REMARK   77  A    between atoms: _194  and  _195
REMARK   78  A    between atoms: _195  and  _196
REMARK   79  A    between atoms: _205  and  _207
REMARK   80  A    between atoms: _207  and  _208
REMARK   81  A    between atoms: _207  and  _210
REMARK   82  A    between atoms: _210  and  _211
REMARK   83  A    between atoms: _214  and  _216
REMARK   84  A    between atoms: _216  and  _217
REMARK   85  A    between atoms: _216  and  _219
REMARK   86  A    between atoms: _219  and  _220
REMARK   87  A    between atoms: _220  and  _221
REMARK   88  A    between atoms: _224  and  _226
REMARK   89  A    between atoms: _226  and  _227
REMARK   90  A    between atoms: _226  and  _229
REMARK   91  A    between atoms: _229  and  _230
REMARK   92  A    between atoms: _233  and  _235
REMARK   93  A    between atoms: _235  and  _236
REMARK   94  A    between atoms: _238  and  _240
REMARK   95  A    between atoms: _240  and  _241
REMARK   96  A    between atoms: _240  and  _243
REMARK   97  A    between atoms: _243  and  _244
REMARK   98  A    between atoms: _246  and  _248
REMARK   99  A    between atoms: _248  and  _249
REMARK  100  A    between atoms: _252  and  _254
REMARK  101  A    between atoms: _254  and  _255
REMARK  102  A    between atoms: _254  and  _257
REMARK  103  A    between atoms: _257  and  _258
REMARK  104  A    between atoms: _260  and  _262
REMARK  105  A    between atoms: _262  and  _263
REMARK  106  A    between atoms: _262  and  _265
REMARK  107  A    between atoms: _265  and  _266
REMARK  108  A    between atoms: _268  and  _270
REMARK  109  A    between atoms: _270  and  _271
REMARK  110  A    between atoms: _270  and  _273
REMARK  111  A    between atoms: _273  and  _274
REMARK  112  A    between atoms: _279  and  _281
REMARK  113  A    between atoms: _281  and  _282
REMARK  114  A    between atoms: _281  and  _284
REMARK  115  A    between atoms: _284  and  _285
REMARK  116  A    between atoms: _285  and  _286
REMARK  117  A    between atoms: _289  and  _291
REMARK  118  A    between atoms: _291  and  _292
REMARK  119  A    between atoms: _291  and  _294
REMARK  120  A    between atoms: _294  and  _295
REMARK  121  A    between atoms: _295  and  _296
REMARK  122  A    between atoms: _299  and  _301
REMARK  123  A    between atoms: _301  and  _302
REMARK  124  A    between atoms: _301  and  _304
REMARK  125  A    between atoms: _304  and  _305
REMARK  126  A    between atoms: _305  and  _306
REMARK  127  A    between atoms: _306  and  _307
REMARK  128  A    between atoms: _316  and  _318
REMARK  129  A    between atoms: _318  and  _319
REMARK  130  A    between atoms: _318  and  _321
REMARK  131  A    between atoms: _321  and  _322
REMARK  132  A    between atoms: _327  and  _329
REMARK  133  A    between atoms: _329  and  _330
REMARK  134  A    between atoms: _329  and  _332
REMARK  135  A    between atoms: _332  and  _333
REMARK  136  A    between atoms: _336  and  _338
REMARK  137  A    between atoms: _338  and  _339
REMARK  138  A    between atoms: _341  and  _343
REMARK  139  A    between atoms: _343  and  _344
REMARK  140  A    between atoms: _346  and  _348
REMARK  141  A    between atoms: _348  and  _349
REMARK  142  A    between atoms: _348  and  _351
REMARK  143  A    between atoms: _351  and  _352
REMARK  144  A    between atoms: _355  and  _357
REMARK  145  A    between atoms: _357  and  _358
REMARK  146  A    between atoms: _357  and  _360
REMARK  147  A    between atoms: _360  and  _361
REMARK  148  A    between atoms: _361  and  _362
REMARK  149  A    between atoms: _362  and  _363
REMARK  150  A    between atoms: _363  and  _364
REMARK  151  A    between atoms: _368  and  _370
REMARK  152  A    between atoms: _370  and  _371
REMARK  153  A    between atoms: _370  and  _373
REMARK  154  A    between atoms: _373  and  _374
REMARK  155  A    between atoms: _374  and  _375
REMARK  156  A    between atoms: _375  and  _376
REMARK  157  A    between atoms: _385  and  _387
REMARK  158  A    between atoms: _387  and  _388
REMARK  159  A    between atoms: _387  and  _390
REMARK  160  A    between atoms: _390  and  _391
REMARK  161  A    between atoms: _401  and  _403
REMARK  162  A    between atoms: _403  and  _404
REMARK  163  A    between atoms: _403  and  _406
REMARK  164  A    between atoms: _406  and  _407
REMARK  165  A    between atoms: _412  and  _413
REMARK  166  A    between atoms: _415  and  _417
REMARK  167  A    between atoms: _417  and  _418
REMARK  168  A    between atoms: _417  and  _420
REMARK  169  A    between atoms: _420  and  _421
REMARK  170  A    between atoms: _421  and  _422
REMARK  171  A    between atoms: _425  and  _427
REMARK  172  A    between atoms: _427  and  _428
REMARK  173  A    between atoms: _427  and  _430
REMARK  174  A    between atoms: _433  and  _435
REMARK  175  A    between atoms: _435  and  _436
REMARK  176  A    between atoms: _435  and  _438
REMARK  177  A    between atoms: _438  and  _439
REMARK                            x       y       z     vdW  Elec       q    Type
REMARK                         _______ _______ _______ _____ _____    ______ ____
ROOT
ATOM      1  C   GLU A   1     -14.759  84.273   9.524  0.00  0.00    +0.238 C 
ATOM      2  N   GLU A   2     -15.464  83.881  10.584  0.00  0.00    -0.298 N 
ATOM      3  H   GLU A   2     -15.092  84.093  11.532  0.00  0.00    +0.150 HD
ATOM      4  O   GLU A   1     -15.079  84.050   8.366  0.00  0.00    -0.274 OA
ENDROOT
BRANCH   1   5
ATOM      5  CA  GLU A   1     -13.489  85.041   9.849  0.00  0.00    +0.145 C 
BRANCH   5   6
ATOM      6  N   GLU A   1     -12.629  85.223   8.688  0.00  0.00    -0.238 NA
ATOM      7  H   GLU A   1     -13.057  85.350   7.749  0.00  0.00    +0.142 HD
ENDBRANCH   5   6
BRANCH   5   8
ATOM      8  CB  GLU A   1     -13.840  86.378  10.500  0.00  0.00    +0.038 C 
BRANCH   8   9
ATOM      9  CG  GLU A   1     -14.755  87.308   9.718  0.00  0.00    +0.116 C 
BRANCH   9  10
ATOM     10  CD  GLU A   1     -14.983  88.598  10.486  0.00  0.00    +0.365 C 
ATOM     11  OE2 GLU A   1     -15.776  88.580  11.452  0.00  0.00    -0.246 OA
ATOM     12  OE1 GLU A   1     -14.332  89.616  10.195  0.00  0.00    -0.246 OA
ENDBRANCH   9  10
ENDBRANCH   8   9
ENDBRANCH   5   8
ENDBRANCH   1   5
BRANCH   2  13
ATOM     13  CA  GLU A   2     -16.731  83.170  10.480  0.00  0.00    +0.137 C 
BRANCH  13  14
ATOM     14  C   GLU A   2     -16.722  82.005   9.504  0.00  0.00    +0.227 C 
ATOM     15  O   GLU A   2     -17.662  81.813   8.726  0.00  0.00    -0.286 OA
ENDBRANCH  13  14
BRANCH  13  16
ATOM     16  CB  GLU A   2     -17.835  84.167  10.139  0.00  0.00    +0.039 C 
BRANCH  16  17
ATOM     17  CG  GLU A   2     -18.029  85.176  11.246  0.00  0.00    +0.116 C 
BRANCH  17  18
ATOM     18  CD  GLU A   2     -19.157  86.147  10.982  0.00  0.00    +0.365 C 
ATOM     19  OE2 GLU A   2     -19.666  86.752  11.953  0.00  0.00    -0.246 OA
ATOM     20  OE1 GLU A   2     -19.531  86.335   9.807  0.00  0.00    -0.246 OA
ENDBRANCH  17  18
ENDBRANCH  16  17
ENDBRANCH  13  16
ENDBRANCH   2  13
TORSDOF 10
REMARK  Name = ../refined-set-2016/4cpy/4cpy_pocket.pdb
REMARK  177 active torsions:
REMARK  status: ('A' for Active; 'I' for Inactive)
REMARK    1  A    between atoms: _1  and  _3
REMARK    2  A    between atoms: _3  and  _4
REMARK    3  A    between atoms: _3  and  _6
REMARK    4  A    between atoms: _6  and  _7
REMARK    5  A    between atoms: _7  and  _8
REMARK    6  A    between atoms: _8  and  _9
REMARK    7  A    between atoms: _18  and  _20
REMARK    8  A    between atoms: _20  and  _21
REMARK    9  A    between atoms: _20  and  _23
REMARK   10  A    between atoms: _23  and  _24
REMARK   11  A    between atoms: _24  and  _25
REMARK   12  A    between atoms: _28  and  _30
REMARK   13  A    between atoms: _30  and  _31
REMARK   14  A    between atoms: _30  and  _33
REMARK   15  A    between atoms: _33  and  _34
REMARK   16  A    between atoms: _37  and  _39
REMARK   17  A    between atoms: _39  and  _40
REMARK   18  A    between atoms: _39  and  _42
REMARK   19  A    between atoms: _42  and  _43
REMARK   20  A    between atoms: _48  and  _50
REMARK   21  A    between atoms: _50  and  _51
REMARK   22  A    between atoms: _50  and  _53
REMARK   23  A    between atoms: _53  and  _54
REMARK   24  A    between atoms: _54  and  _55
REMARK   25  A    between atoms: _55  and  _56
REMARK   26  A    between atoms: _65  and  _67
REMARK   27  A    between atoms: _67  and  _68
REMARK   28  A    between atoms: _70  and  _72
REMARK   29  A    between atoms: _72  and  _73
REMARK   30  A    between atoms: _72  and  _75
REMARK   31  A    between atoms: _75  and  _76
REMARK   32  A    between atoms: _79  and  _81
REMARK   33  A    between atoms: _81  and  _82
REMARK   34  A    between atoms: _81  and  _84
REMARK   35  A    between atoms: _84  and  _85
REMARK   36  A    between atoms: _85  and  _86
REMARK   37  A    between atoms: _86  and  _87
REMARK   38  A    between atoms: _96  and  _98
REMARK   39  A    between atoms: _98  and  _99
REMARK   40  A    between atoms: _98  and  _101
REMARK   41  A    between atoms: _101  and  _102
REMARK   42  A    between atoms: _107  and  _109
REMARK   43  A    between atoms: _109  and  _110
REMARK   44  A    between atoms: _109  and  _112
REMARK   45  A    between atoms: _112  and  _113
REMARK   46  A    between atoms: _113  and  _114
REMARK   47  A    between atoms: _114  and  _115
REMARK   48  A    between atoms: _124  and  _126
REMARK   49  A    between atoms: _126  and  _127
REMARK   50  A    between atoms: _126  and  _129
REMARK   51  A    between atoms: _129  and  _130
REMARK   52  A    between atoms: _140  and  _142
REMARK   53  A    between atoms: _142  and  _143
REMARK   54  A    between atoms: _142  and  _145
REMARK   55  A    between atoms: _145  and  _146
REMARK   56  A    between atoms: _148  and  _150
REMARK   57  A    between atoms: _150  and  _151
REMARK   58  A    between atoms: _153  and  _155
REMARK   59  A    between atoms: _155  and  _156
REMARK   60  A    between atoms: _155  and  _158
REMARK   61  A    between atoms: _161  and  _163
REMARK   62  A    between atoms: _163  and  _164
REMARK   63  A    between atoms: _163  and  _166
REMARK   64  A    between atoms: _166  and  _167
REMARK   65  A    between atoms: _170  and  _172
REMARK   66  A    between atoms: _172  and  _173
REMARK   67  A    between atoms: _172  and  _175
REMARK   68  A    between atoms: _175  and  _176
REMARK   69  A    between atoms: _179  and  _181
REMARK   70  A    between atoms: _181  and  _182
REMARK   71  A    between atoms: _181  and  _184
REMARK   72  A    between atoms: _184  and  _185
REMARK   73  A    between atoms: _188  and  _190
REMARK   74  A    between atoms: _190  and  _191
REMARK   75  A    between atoms: _190  and  _193
REMARK   76  A    between atoms: _193  and  _194
REMARK   77  A    between atoms: _194  and  _195
REMARK   78  A    between atoms: _195  and  _196
REMARK   79  A    between atoms: _205  and  _207
REMARK   80  A    between atoms: _207  and  _208
REMARK   81  A    between atoms: _207  and  _210
REMARK   82  A    between atoms: _210  and  _211
REMARK   83  A    between atoms: _214  and  _216
REMARK   84  A    between atoms: _216  and  _217
REMARK   85  A    between atoms: _216  and  _219
REMARK   86  A    between atoms: _219  and  _220
REMARK   87  A    between atoms: _220  and  _221
REMARK   88  A    between atoms: _224  and  _226
REMARK   89  A    between atoms: _226  and  _227
REMARK   90  A    between atoms: _226  and  _229
REMARK   91  A    between atoms: _229  and  _230
REMARK   92  A    between atoms: _233  and  _235
REMARK   93  A    between atoms: _235  and  _236
REMARK   94  A    between atoms: _238  and  _240
REMARK   95  A    between atoms: _240  and  _241
REMARK   96  A    between atoms: _240  and  _243
REMARK   97  A    between atoms: _243  and  _244
REMARK   98  A    between atoms: _246  and  _248
REMARK   99  A    between atoms: _248  and  _249
REMARK  100  A    between atoms: _252  and  _254
REMARK  101  A    between atoms: _254  and  _255
REMARK  102  A    between atoms: _254  and  _257
REMARK  103  A    between atoms: _257  and  _258
REMARK  104  A    between atoms: _260  and  _262
REMARK  105  A    between atoms: _262  and  _263
REMARK  106  A    between atoms: _262  and  _265
REMARK  107  A    between atoms: _265  and  _266
REMARK  108  A    between atoms: _268  and  _270
REMARK  109  A    between atoms: _270  and  _271
REMARK  110  A    between atoms: _270  and  _273
REMARK  111  A    between atoms: _273  and  _274
REMARK  112  A    between atoms: _279  and  _281
REMARK  113  A    between atoms: _281  and  _282
REMARK  114  A    between atoms: _281  and  _284
REMARK  115  A    between atoms: _284  and  _285
REMARK  116  A    between atoms: _285  and  _286
REMARK  117  A    between atoms: _289  and  _291
REMARK  118  A    between atoms: _291  and  _292
REMARK  119  A    between atoms: _291  and  _294
REMARK  120  A    between atoms: _294  and  _295
REMARK  121  A    between atoms: _295  and  _296
REMARK  122  A    between atoms: _299  and  _301
REMARK  123  A    between atoms: _301  and  _302
REMARK  124  A    between atoms: _301  and  _304
REMARK  125  A    between atoms: _304  and  _305
REMARK  126  A    between atoms: _305  and  _306
REMARK  127  A    between atoms: _306  and  _307
REMARK  128  A    between atoms: _316  and  _318
REMARK  129  A    between atoms: _318  and  _319
REMARK  130  A    between atoms: _318  and  _321
REMARK  131  A    between atoms: _321  and  _322
REMARK  132  A    between atoms: _327  and  _329
REMARK  133  A    between atoms: _329  and  _330
REMARK  134  A    between atoms: _329  and  _332
REMARK  135  A    between atoms: _332  and  _333
REMARK  136  A    between atoms: _336  and  _338
REMARK  137  A    between atoms: _338  and  _339
REMARK  138  A    between atoms: _341  and  _343
REMARK  139  A    between atoms: _343  and  _344
REMARK  140  A    between atoms: _346  and  _348
REMARK  141  A    between atoms: _348  and  _349
REMARK  142  A    between atoms: _348  and  _351
REMARK  143  A    between atoms: _351  and  _352
REMARK  144  A    between atoms: _355  and  _357
REMARK  145  A    between atoms: _357  and  _358
REMARK  146  A    between atoms: _357  and  _360
REMARK  147  A    between atoms: _360  and  _361
REMARK  148  A    between atoms: _361  and  _362
REMARK  149  A    between atoms: _362  and  _363
REMARK  150  A    between atoms: _363  and  _364
REMARK  151  A    between atoms: _368  and  _370
REMARK  152  A    between atoms: _370  and  _371
REMARK  153  A    between atoms: _370  and  _373
REMARK  154  A    between atoms: _373  and  _374
REMARK  155  A    between atoms: _374  and  _375
REMARK  156  A    between atoms: _375  and  _376
REMARK  157  A    between atoms: _385  and  _387
REMARK  158  A    between atoms: _387  and  _388
REMARK  159  A    between atoms: _387  and  _390
REMARK  160  A    between atoms: _390  and  _391
REMARK  161  A    between atoms: _401  and  _403
REMARK  162  A    between atoms: _403  and  _404
REMARK  163  A    between atoms: _403  and  _406
REMARK  164  A    between atoms: _406  and  _407
REMARK  165  A    between atoms: _412  and  _413
REMARK  166  A    between atoms: _415  and  _417
REMARK  167  A    between atoms: _417  and  _418
REMARK  168  A    between atoms: _417  and  _420
REMARK  169  A    between atoms: _420  and  _421
REMARK  170  A    between atoms: _421  and  _422
REMARK  171  A    between atoms: _425  and  _427
REMARK  172  A    between atoms: _427  and  _428
REMARK  173  A    between atoms: _427  and  _430
REMARK  174  A    between atoms: _433  and  _435
REMARK  175  A    between atoms: _435  and  _436
REMARK  176  A    between atoms: _435  and  _438
REMARK  177  A    between atoms: _438  and  _439
REMARK                            x       y       z     vdW  Elec       q    Type
REMARK                         _______ _______ _______ _____ _____    ______ ____
ROOT
ATOM      1  NE  ARG A   1     -18.504  89.417   7.671  0.00  0.00    -0.265 N 
ATOM      2  CZ  ARG A   1     -19.512  89.846   8.426  0.00  0.00    +0.342 C 
ATOM      3  NH2 ARG A   1     -20.278  88.972   9.073  0.00  0.00    -0.292 N 
ATOM      4 HH21 ARG A   1     -21.066  89.308   9.663  0.00  0.00    +0.255 HD
ATOM      5 HH22 ARG A   1     -20.089  87.953   8.989  0.00  0.00    +0.255 HD
ATOM      6  NH1 ARG A   1     -19.755  91.150   8.549  0.00  0.00    -0.292 N 
ATOM      7 HH11 ARG A   1     -20.545  91.478   9.141  0.00  0.00    +0.255 HD
ATOM      8 HH12 ARG A   1     -19.155  91.840   8.053  0.00  0.00    +0.255 HD
ATOM      9  HE  ARG A   1     -17.920  90.130   7.189  0.00  0.00    +0.259 HD
ENDROOT
BRANCH   1  10
ATOM     10  CD  ARG A   1     -18.166  88.016   7.476  0.00  0.00    +0.174 C 
BRANCH  10  11
ATOM     11  CG  ARG A   1     -17.152  87.758   6.355  0.00  0.00    +0.045 C 
BRANCH  11  12
ATOM     12  CB  ARG A   1     -16.814  86.270   6.356  0.00  0.00    +0.029 C 
BRANCH  12  13
ATOM     13  CA  ARG A   1     -15.755  85.803   5.357  0.00  0.00    +0.133 C 
BRANCH  13  14
ATOM     14  N   ARG A   1     -15.418  84.414   5.616  0.00  0.00    -0.239 NA
ATOM     15  H   ARG A   1     -15.079  84.159   6.566  0.00  0.00    +0.142 HD
ENDBRANCH  13  14
BRANCH  13  16
ATOM     16  C   ARG A   1     -14.513  86.705   5.443  0.00  0.00    +0.224 C 
ATOM     17  O   ARG A   1     -13.763  86.672   6.432  0.00  0.00    -0.287 OA
ENDBRANCH  13  16
ENDBRANCH  12  13
ENDBRANCH  11  12
ENDBRANCH  10  11
ENDBRANCH   1  10
TORSDOF 6
REMARK  Name = ../refined-set-2016/4cpy/4cpy_pocket.pdb
REMARK  177 active torsions:
REMARK  status: ('A' for Active; 'I' for Inactive)
REMARK    1  A    between atoms: _1  and  _3
REMARK    2  A    between atoms: _3  and  _4
REMARK    3  A    between atoms: _3  and  _6
REMARK    4  A    between atoms: _6  and  _7
REMARK    5  A    between atoms: _7  and  _8
REMARK    6  A    between atoms: _8  and  _9
REMARK    7  A    between atoms: _18  and  _20
REMARK    8  A    between atoms: _20  and  _21
REMARK    9  A    between atoms: _20  and  _23
REMARK   10  A    between atoms: _23  and  _24
REMARK   11  A    between atoms: _24  and  _25
REMARK   12  A    between atoms: _28  and  _30
REMARK   13  A    between atoms: _30  and  _31
REMARK   14  A    between atoms: _30  and  _33
REMARK   15  A    between atoms: _33  and  _34
REMARK   16  A    between atoms: _37  and  _39
REMARK   17  A    between atoms: _39  and  _40
REMARK   18  A    between atoms: _39  and  _42
REMARK   19  A    between atoms: _42  and  _43
REMARK   20  A    between atoms: _48  and  _50
REMARK   21  A    between atoms: _50  and  _51
REMARK   22  A    between atoms: _50  and  _53
REMARK   23  A    between atoms: _53  and  _54
REMARK   24  A    between atoms: _54  and  _55
REMARK   25  A    between atoms: _55  and  _56
REMARK   26  A    between atoms: _65  and  _67
REMARK   27  A    between atoms: _67  and  _68
REMARK   28  A    between atoms: _70  and  _72
REMARK   29  A    between atoms: _72  and  _73
REMARK   30  A    between atoms: _72  and  _75
REMARK   31  A    between atoms: _75  and  _76
REMARK   32  A    between atoms: _79  and  _81
REMARK   33  A    between atoms: _81  and  _82
REMARK   34  A    between atoms: _81  and  _84
REMARK   35  A    between atoms: _84  and  _85
REMARK   36  A    between atoms: _85  and  _86
REMARK   37  A    between atoms: _86  and  _87
REMARK   38  A    between atoms: _96  and  _98
REMARK   39  A    between atoms: _98  and  _99
REMARK   40  A    between atoms: _98  and  _101
REMARK   41  A    between atoms: _101  and  _102
REMARK   42  A    between atoms: _107  and  _109
REMARK   43  A    between atoms: _109  and  _110
REMARK   44  A    between atoms: _109  and  _112
REMARK   45  A    between atoms: _112  and  _113
REMARK   46  A    between atoms: _113  and  _114
REMARK   47  A    between atoms: _114  and  _115
REMARK   48  A    between atoms: _124  and  _126
REMARK   49  A    between atoms: _126  and  _127
REMARK   50  A    between atoms: _126  and  _129
REMARK   51  A    between atoms: _129  and  _130
REMARK   52  A    between atoms: _140  and  _142
REMARK   53  A    between atoms: _142  and  _143
REMARK   54  A    between atoms: _142  and  _145
REMARK   55  A    between atoms: _145  and  _146
REMARK   56  A    between atoms: _148  and  _150
REMARK   57  A    between atoms: _150  and  _151
REMARK   58  A    between atoms: _153  and  _155
REMARK   59  A    between atoms: _155  and  _156
REMARK   60  A    between atoms: _155  and  _158
REMARK   61  A    between atoms: _161  and  _163
REMARK   62  A    between atoms: _163  and  _164
REMARK   63  A    between atoms: _163  and  _166
REMARK   64  A    between atoms: _166  and  _167
REMARK   65  A    between atoms: _170  and  _172
REMARK   66  A    between atoms: _172  and  _173
REMARK   67  A    between atoms: _172  and  _175
REMARK   68  A    between atoms: _175  and  _176
REMARK   69  A    between atoms: _179  and  _181
REMARK   70  A    between atoms: _181  and  _182
REMARK   71  A    between atoms: _181  and  _184
REMARK   72  A    between atoms: _184  and  _185
REMARK   73  A    between atoms: _188  and  _190
REMARK   74  A    between atoms: _190  and  _191
REMARK   75  A    between atoms: _190  and  _193
REMARK   76  A    between atoms: _193  and  _194
REMARK   77  A    between atoms: _194  and  _195
REMARK   78  A    between atoms: _195  and  _196
REMARK   79  A    between atoms: _205  and  _207
REMARK   80  A    between atoms: _207  and  _208
REMARK   81  A    between atoms: _207  and  _210
REMARK   82  A    between atoms: _210  and  _211
REMARK   83  A    between atoms: _214  and  _216
REMARK   84  A    between atoms: _216  and  _217
REMARK   85  A    between atoms: _216  and  _219
REMARK   86  A    between atoms: _219  and  _220
REMARK   87  A    between atoms: _220  and  _221
REMARK   88  A    between atoms: _224  and  _226
REMARK   89  A    between atoms: _226  and  _227
REMARK   90  A    between atoms: _226  and  _229
REMARK   91  A    between atoms: _229  and  _230
REMARK   92  A    between atoms: _233  and  _235
REMARK   93  A    between atoms: _235  and  _236
REMARK   94  A    between atoms: _238  and  _240
REMARK   95  A    between atoms: _240  and  _241
REMARK   96  A    between atoms: _240  and  _243
REMARK   97  A    between atoms: _243  and  _244
REMARK   98  A    between atoms: _246  and  _248
REMARK   99  A    between atoms: _248  and  _249
REMARK  100  A    between atoms: _252  and  _254
REMARK  101  A    between atoms: _254  and  _255
REMARK  102  A    between atoms: _254  and  _257
REMARK  103  A    between atoms: _257  and  _258
REMARK  104  A    between atoms: _260  and  _262
REMARK  105  A    between atoms: _262  and  _263
REMARK  106  A    between atoms: _262  and  _265
REMARK  107  A    between atoms: _265  and  _266
REMARK  108  A    between atoms: _268  and  _270
REMARK  109  A    between atoms: _270  and  _271
REMARK  110  A    between atoms: _270  and  _273
REMARK  111  A    between atoms: _273  and  _274
REMARK  112  A    between atoms: _279  and  _281
REMARK  113  A    between atoms: _281  and  _282
REMARK  114  A    between atoms: _281  and  _284
REMARK  115  A    between atoms: _284  and  _285
REMARK  116  A    between atoms: _285  and  _286
REMARK  117  A    between atoms: _289  and  _291
REMARK  118  A    between atoms: _291  and  _292
REMARK  119  A    between atoms: _291  and  _294
REMARK  120  A    between atoms: _294  and  _295
REMARK  121  A    between atoms: _295  and  _296
REMARK  122  A    between atoms: _299  and  _301
REMARK  123  A    between atoms: _301  and  _302
REMARK  124  A    between atoms: _301  and  _304
REMARK  125  A    between atoms: _304  and  _305
REMARK  126  A    between atoms: _305  and  _306
REMARK  127  A    between atoms: _306  and  _307
REMARK  128  A    between atoms: _316  and  _318
REMARK  129  A    between atoms: _318  and  _319
REMARK  130  A    between atoms: _318  and  _321
REMARK  131  A    between atoms: _321  and  _322
REMARK  132  A    between atoms: _327  and  _329
REMARK  133  A    between atoms: _329  and  _330
REMARK  134  A    between atoms: _329  and  _332
REMARK  135  A    between atoms: _332  and  _333
REMARK  136  A    between atoms: _336  and  _338
REMARK  137  A    between atoms: _338  and  _339
REMARK  138  A    between atoms: _341  and  _343
REMARK  139  A    between atoms: _343  and  _344
REMARK  140  A    between atoms: _346  and  _348
REMARK  141  A    between atoms: _348  and  _349
REMARK  142  A    between atoms: _348  and  _351
REMARK  143  A    between atoms: _351  and  _352
REMARK  144  A    between atoms: _355  and  _357
REMARK  145  A    between atoms: _357  and  _358
REMARK  146  A    between atoms: _357  and  _360
REMARK  147  A    between atoms: _360  and  _361
REMARK  148  A    between atoms: _361  and  _362
REMARK  149  A    between atoms: _362  and  _363
REMARK  150  A    between atoms: _363  and  _364
REMARK  151  A    between atoms: _368  and  _370
REMARK  152  A    between atoms: _370  and  _371
REMARK  153  A    between atoms: _370  and  _373
REMARK  154  A    between atoms: _373  and  _374
REMARK  155  A    between atoms: _374  and  _375
REMARK  156  A    between atoms: _375  and  _376
REMARK  157  A    between atoms: _385  and  _387
REMARK  158  A    between atoms: _387  and  _388
REMARK  159  A    between atoms: _387  and  _390
REMARK  160  A    between atoms: _390  and  _391
REMARK  161  A    between atoms: _401  and  _403
REMARK  162  A    between atoms: _403  and  _404
REMARK  163  A    between atoms: _403  and  _406
REMARK  164  A    between atoms: _406  and  _407
REMARK  165  A    between atoms: _412  and  _413
REMARK  166  A    between atoms: _415  and  _417
REMARK  167  A    between atoms: _417  and  _418
REMARK  168  A    between atoms: _417  and  _420
REMARK  169  A    between atoms: _420  and  _421
REMARK  170  A    between atoms: _421  and  _422
REMARK  171  A    between atoms: _425  and  _427
REMARK  172  A    between atoms: _427  and  _428
REMARK  173  A    between atoms: _427  and  _430
REMARK  174  A    between atoms: _433  and  _435
REMARK  175  A    between atoms: _435  and  _436
REMARK  176  A    between atoms: _435  and  _438
REMARK  177  A    between atoms: _438  and  _439
REMARK                            x       y       z     vdW  Elec       q    Type
REMARK                         _______ _______ _______ _____ _____    ______ ____
ROOT
ATOM      1  CB  ASN A   1     -15.205  91.784   7.544  0.00  0.00    +0.110 C 
ENDROOT
BRANCH   1   2
ATOM      2  CG  ASN A   1     -16.456  92.590   7.846  0.00  0.00    +0.221 C 
ATOM      3  ND2 ASN A   1     -16.326  93.614   8.671  0.00  0.00    -0.329 N 
ATOM      4 HD21 ASN A   1     -15.398  93.833   9.086  0.00  0.00    +0.145 HD
ATOM      5 HD22 ASN A   1     -17.152  94.201   8.906  0.00  0.00    +0.145 HD
ATOM      6  OD1 ASN A   1     -17.531  92.291   7.331  0.00  0.00    -0.275 OA
ENDBRANCH   1   2
BRANCH   1   7
ATOM      7  CA  ASN A   1     -14.929  91.674   6.034  0.00  0.00    +0.142 C 
BRANCH   7   8
ATOM      8  N   ASN A   1     -14.163  90.452   5.740  0.00  0.00    -0.239 NA
ATOM      9  H   ASN A   1     -13.598  90.022   6.500  0.00  0.00    +0.142 HD
ENDBRANCH   7   8
BRANCH   7  10
ATOM     10  C   ASN A   1     -14.297  92.981   5.561  0.00  0.00    +0.225 C 
ATOM     11  O   ASN A   1     -14.901  94.039   5.703  0.00  0.00    -0.287 OA
ENDBRANCH   7  10
ENDBRANCH   1   7
TORSDOF 4
REMARK  Name = ../refined-set-2016/4cpy/4cpy_pocket.pdb
REMARK  177 active torsions:
REMARK  status: ('A' for Active; 'I' for Inactive)
REMARK    1  A    between atoms: _1  and  _3
REMARK    2  A    between atoms: _3  and  _4
REMARK    3  A    between atoms: _3  and  _6
REMARK    4  A    between atoms: _6  and  _7
REMARK    5  A    between atoms: _7  and  _8
REMARK    6  A    between atoms: _8  and  _9
REMARK    7  A    between atoms: _18  and  _20
REMARK    8  A    between atoms: _20  and  _21
REMARK    9  A    between atoms: _20  and  _23
REMARK   10  A    between atoms: _23  and  _24
REMARK   11  A    between atoms: _24  and  _25
REMARK   12  A    between atoms: _28  and  _30
REMARK   13  A    between atoms: _30  and  _31
REMARK   14  A    between atoms: _30  and  _33
REMARK   15  A    between atoms: _33  and  _34
REMARK   16  A    between atoms: _37  and  _39
REMARK   17  A    between atoms: _39  and  _40
REMARK   18  A    between atoms: _39  and  _42
REMARK   19  A    between atoms: _42  and  _43
REMARK   20  A    between atoms: _48  and  _50
REMARK   21  A    between atoms: _50  and  _51
REMARK   22  A    between atoms: _50  and  _53
REMARK   23  A    between atoms: _53  and  _54
REMARK   24  A    between atoms: _54  and  _55
REMARK   25  A    between atoms: _55  and  _56
REMARK   26  A    between atoms: _65  and  _67
REMARK   27  A    between atoms: _67  and  _68
REMARK   28  A    between atoms: _70  and  _72
REMARK   29  A    between atoms: _72  and  _73
REMARK   30  A    between atoms: _72  and  _75
REMARK   31  A    between atoms: _75  and  _76
REMARK   32  A    between atoms: _79  and  _81
REMARK   33  A    between atoms: _81  and  _82
REMARK   34  A    between atoms: _81  and  _84
REMARK   35  A    between atoms: _84  and  _85
REMARK   36  A    between atoms: _85  and  _86
REMARK   37  A    between atoms: _86  and  _87
REMARK   38  A    between atoms: _96  and  _98
REMARK   39  A    between atoms: _98  and  _99
REMARK   40  A    between atoms: _98  and  _101
REMARK   41  A    between atoms: _101  and  _102
REMARK   42  A    between atoms: _107  and  _109
REMARK   43  A    between atoms: _109  and  _110
REMARK   44  A    between atoms: _109  and  _112
REMARK   45  A    between atoms: _112  and  _113
REMARK   46  A    between atoms: _113  and  _114
REMARK   47  A    between atoms: _114  and  _115
REMARK   48  A    between atoms: _124  and  _126
REMARK   49  A    between atoms: _126  and  _127
REMARK   50  A    between atoms: _126  and  _129
REMARK   51  A    between atoms: _129  and  _130
REMARK   52  A    between atoms: _140  and  _142
REMARK   53  A    between atoms: _142  and  _143
REMARK   54  A    between atoms: _142  and  _145
REMARK   55  A    between atoms: _145  and  _146
REMARK   56  A    between atoms: _148  and  _150
REMARK   57  A    between atoms: _150  and  _151
REMARK   58  A    between atoms: _153  and  _155
REMARK   59  A    between atoms: _155  and  _156
REMARK   60  A    between atoms: _155  and  _158
REMARK   61  A    between atoms: _161  and  _163
REMARK   62  A    between atoms: _163  and  _164
REMARK   63  A    between atoms: _163  and  _166
REMARK   64  A    between atoms: _166  and  _167
REMARK   65  A    between atoms: _170  and  _172
REMARK   66  A    between atoms: _172  and  _173
REMARK   67  A    between atoms: _172  and  _175
REMARK   68  A    between atoms: _175  and  _176
REMARK   69  A    between atoms: _179  and  _181
REMARK   70  A    between atoms: _181  and  _182
REMARK   71  A    between atoms: _181  and  _184
REMARK   72  A    between atoms: _184  and  _185
REMARK   73  A    between atoms: _188  and  _190
REMARK   74  A    between atoms: _190  and  _191
REMARK   75  A    between atoms: _190  and  _193
REMARK   76  A    between atoms: _193  and  _194
REMARK   77  A    between atoms: _194  and  _195
REMARK   78  A    between atoms: _195  and  _196
REMARK   79  A    between atoms: _205  and  _207
REMARK   80  A    between atoms: _207  and  _208
REMARK   81  A    between atoms: _207  and  _210
REMARK   82  A    between atoms: _210  and  _211
REMARK   83  A    between atoms: _214  and  _216
REMARK   84  A    between atoms: _216  and  _217
REMARK   85  A    between atoms: _216  and  _219
REMARK   86  A    between atoms: _219  and  _220
REMARK   87  A    between atoms: _220  and  _221
REMARK   88  A    between atoms: _224  and  _226
REMARK   89  A    between atoms: _226  and  _227
REMARK   90  A    between atoms: _226  and  _229
REMARK   91  A    between atoms: _229  and  _230
REMARK   92  A    between atoms: _233  and  _235
REMARK   93  A    between atoms: _235  and  _236
REMARK   94  A    between atoms: _238  and  _240
REMARK   95  A    between atoms: _240  and  _241
REMARK   96  A    between atoms: _240  and  _243
REMARK   97  A    between atoms: _243  and  _244
REMARK   98  A    between atoms: _246  and  _248
REMARK   99  A    between atoms: _248  and  _249
REMARK  100  A    between atoms: _252  and  _254
REMARK  101  A    between atoms: _254  and  _255
REMARK  102  A    between atoms: _254  and  _257
REMARK  103  A    between atoms: _257  and  _258
REMARK  104  A    between atoms: _260  and  _262
REMARK  105  A    between atoms: _262  and  _263
REMARK  106  A    between atoms: _262  and  _265
REMARK  107  A    between atoms: _265  and  _266
REMARK  108  A    between atoms: _268  and  _270
REMARK  109  A    between atoms: _270  and  _271
REMARK  110  A    between atoms: _270  and  _273
REMARK  111  A    between atoms: _273  and  _274
REMARK  112  A    between atoms: _279  and  _281
REMARK  113  A    between atoms: _281  and  _282
REMARK  114  A    between atoms: _281  and  _284
REMARK  115  A    between atoms: _284  and  _285
REMARK  116  A    between atoms: _285  and  _286
REMARK  117  A    between atoms: _289  and  _291
REMARK  118  A    between atoms: _291  and  _292
REMARK  119  A    between atoms: _291  and  _294
REMARK  120  A    between atoms: _294  and  _295
REMARK  121  A    between atoms: _295  and  _296
REMARK  122  A    between atoms: _299  and  _301
REMARK  123  A    between atoms: _301  and  _302
REMARK  124  A    between atoms: _301  and  _304
REMARK  125  A    between atoms: _304  and  _305
REMARK  126  A    between atoms: _305  and  _306
REMARK  127  A    between atoms: _306  and  _307
REMARK  128  A    between atoms: _316  and  _318
REMARK  129  A    between atoms: _318  and  _319
REMARK  130  A    between atoms: _318  and  _321
REMARK  131  A    between atoms: _321  and  _322
REMARK  132  A    between atoms: _327  and  _329
REMARK  133  A    between atoms: _329  and  _330
REMARK  134  A    between atoms: _329  and  _332
REMARK  135  A    between atoms: _332  and  _333
REMARK  136  A    between atoms: _336  and  _338
REMARK  137  A    between atoms: _338  and  _339
REMARK  138  A    between atoms: _341  and  _343
REMARK  139  A    between atoms: _343  and  _344
REMARK  140  A    between atoms: _346  and  _348
REMARK  141  A    between atoms: _348  and  _349
REMARK  142  A    between atoms: _348  and  _351
REMARK  143  A    between atoms: _351  and  _352
REMARK  144  A    between atoms: _355  and  _357
REMARK  145  A    between atoms: _357  and  _358
REMARK  146  A    between atoms: _357  and  _360
REMARK  147  A    between atoms: _360  and  _361
REMARK  148  A    between atoms: _361  and  _362
REMARK  149  A    between atoms: _362  and  _363
REMARK  150  A    between atoms: _363  and  _364
REMARK  151  A    between atoms: _368  and  _370
REMARK  152  A    between atoms: _370  and  _371
REMARK  153  A    between atoms: _370  and  _373
REMARK  154  A    between atoms: _373  and  _374
REMARK  155  A    between atoms: _374  and  _375
REMARK  156  A    between atoms: _375  and  _376
REMARK  157  A    between atoms: _385  and  _387
REMARK  158  A    between atoms: _387  and  _388
REMARK  159  A    between atoms: _387  and  _390
REMARK  160  A    between atoms: _390  and  _391
REMARK  161  A    between atoms: _401  and  _403
REMARK  162  A    between atoms: _403  and  _404
REMARK  163  A    between atoms: _403  and  _406
REMARK  164  A    between atoms: _406  and  _407
REMARK  165  A    between atoms: _412  and  _413
REMARK  166  A    between atoms: _415  and  _417
REMARK  167  A    between atoms: _417  and  _418
REMARK  168  A    between atoms: _417  and  _420
REMARK  169  A    between atoms: _420  and  _421
REMARK  170  A    between atoms: _421  and  _422
REMARK  171  A    between atoms: _425  and  _427
REMARK  172  A    between atoms: _427  and  _428
REMARK  173  A    between atoms: _427  and  _430
REMARK  174  A    between atoms: _433  and  _435
REMARK  175  A    between atoms: _435  and  _436
REMARK  176  A    between atoms: _435  and  _438
REMARK  177  A    between atoms: _438  and  _439
REMARK                            x       y       z     vdW  Elec       q    Type
REMARK                         _______ _______ _______ _____ _____    ______ ____
ROOT
ATOM      1  CA  THR A   1     -22.563  90.290   0.532  0.00  0.00    +0.160 C 
ENDROOT
BRANCH   1   2
ATOM      2  N   THR A   1     -21.674  89.134   0.675  0.00  0.00    -0.237 NA
ATOM      3  H   THR A   1     -21.341  88.887   1.629  0.00  0.00    +0.142 HD
ENDBRANCH   1   2
BRANCH   1   4
ATOM      4  C   THR A   1     -22.027  91.433   1.412  0.00  0.00    +0.227 C 
ATOM      5  O   THR A   1     -21.904  91.256   2.648  0.00  0.00    -0.287 OA
ENDBRANCH   1   4
BRANCH   1   6
ATOM      6  CB  THR A   1     -24.005  89.979   0.983  0.00  0.00    +0.134 C 
ATOM      7  CG2 THR A   1     -24.952  91.149   0.670  0.00  0.00    +0.034 C 
BRANCH   6   8
ATOM      8  OG1 THR A   1     -24.472  88.795   0.326  0.00  0.00    -0.383 OA
ATOM      9  HG1 THR A   1     -23.883  88.035   0.561  0.00  0.00    +0.210 HD
ENDBRANCH   6   8
ENDBRANCH   1   6
TORSDOF 4
REMARK  Name = ../refined-set-2016/4cpy/4cpy_pocket.pdb
REMARK  177 active torsions:
REMARK  status: ('A' for Active; 'I' for Inactive)
REMARK    1  A    between atoms: _1  and  _3
REMARK    2  A    between atoms: _3  and  _4
REMARK    3  A    between atoms: _3  and  _6
REMARK    4  A    between atoms: _6  and  _7
REMARK    5  A    between atoms: _7  and  _8
REMARK    6  A    between atoms: _8  and  _9
REMARK    7  A    between atoms: _18  and  _20
REMARK    8  A    between atoms: _20  and  _21
REMARK    9  A    between atoms: _20  and  _23
REMARK   10  A    between atoms: _23  and  _24
REMARK   11  A    between atoms: _24  and  _25
REMARK   12  A    between atoms: _28  and  _30
REMARK   13  A    between atoms: _30  and  _31
REMARK   14  A    between atoms: _30  and  _33
REMARK   15  A    between atoms: _33  and  _34
REMARK   16  A    between atoms: _37  and  _39
REMARK   17  A    between atoms: _39  and  _40
REMARK   18  A    between atoms: _39  and  _42
REMARK   19  A    between atoms: _42  and  _43
REMARK   20  A    between atoms: _48  and  _50
REMARK   21  A    between atoms: _50  and  _51
REMARK   22  A    between atoms: _50  and  _53
REMARK   23  A    between atoms: _53  and  _54
REMARK   24  A    between atoms: _54  and  _55
REMARK   25  A    between atoms: _55  and  _56
REMARK   26  A    between atoms: _65  and  _67
REMARK   27  A    between atoms: _67  and  _68
REMARK   28  A    between atoms: _70  and  _72
REMARK   29  A    between atoms: _72  and  _73
REMARK   30  A    between atoms: _72  and  _75
REMARK   31  A    between atoms: _75  and  _76
REMARK   32  A    between atoms: _79  and  _81
REMARK   33  A    between atoms: _81  and  _82
REMARK   34  A    between atoms: _81  and  _84
REMARK   35  A    between atoms: _84  and  _85
REMARK   36  A    between atoms: _85  and  _86
REMARK   37  A    between atoms: _86  and  _87
REMARK   38  A    between atoms: _96  and  _98
REMARK   39  A    between atoms: _98  and  _99
REMARK   40  A    between atoms: _98  and  _101
REMARK   41  A    between atoms: _101  and  _102
REMARK   42  A    between atoms: _107  and  _109
REMARK   43  A    between atoms: _109  and  _110
REMARK   44  A    between atoms: _109  and  _112
REMARK   45  A    between atoms: _112  and  _113
REMARK   46  A    between atoms: _113  and  _114
REMARK   47  A    between atoms: _114  and  _115
REMARK   48  A    between atoms: _124  and  _126
REMARK   49  A    between atoms: _126  and  _127
REMARK   50  A    between atoms: _126  and  _129
REMARK   51  A    between atoms: _129  and  _130
REMARK   52  A    between atoms: _140  and  _142
REMARK   53  A    between atoms: _142  and  _143
REMARK   54  A    between atoms: _142  and  _145
REMARK   55  A    between atoms: _145  and  _146
REMARK   56  A    between atoms: _148  and  _150
REMARK   57  A    between atoms: _150  and  _151
REMARK   58  A    between atoms: _153  and  _155
REMARK   59  A    between atoms: _155  and  _156
REMARK   60  A    between atoms: _155  and  _158
REMARK   61  A    between atoms: _161  and  _163
REMARK   62  A    between atoms: _163  and  _164
REMARK   63  A    between atoms: _163  and  _166
REMARK   64  A    between atoms: _166  and  _167
REMARK   65  A    between atoms: _170  and  _172
REMARK   66  A    between atoms: _172  and  _173
REMARK   67  A    between atoms: _172  and  _175
REMARK   68  A    between atoms: _175  and  _176
REMARK   69  A    between atoms: _179  and  _181
REMARK   70  A    between atoms: _181  and  _182
REMARK   71  A    between atoms: _181  and  _184
REMARK   72  A    between atoms: _184  and  _185
REMARK   73  A    between atoms: _188  and  _190
REMARK   74  A    between atoms: _190  and  _191
REMARK   75  A    between atoms: _190  and  _193
REMARK   76  A    between atoms: _193  and  _194
REMARK   77  A    between atoms: _194  and  _195
REMARK   78  A    between atoms: _195  and  _196
REMARK   79  A    between atoms: _205  and  _207
REMARK   80  A    between atoms: _207  and  _208
REMARK   81  A    between atoms: _207  and  _210
REMARK   82  A    between atoms: _210  and  _211
REMARK   83  A    between atoms: _214  and  _216
REMARK   84  A    between atoms: _216  and  _217
REMARK   85  A    between atoms: _216  and  _219
REMARK   86  A    between atoms: _219  and  _220
REMARK   87  A    between atoms: _220  and  _221
REMARK   88  A    between atoms: _224  and  _226
REMARK   89  A    between atoms: _226  and  _227
REMARK   90  A    between atoms: _226  and  _229
REMARK   91  A    between atoms: _229  and  _230
REMARK   92  A    between atoms: _233  and  _235
REMARK   93  A    between atoms: _235  and  _236
REMARK   94  A    between atoms: _238  and  _240
REMARK   95  A    between atoms: _240  and  _241
REMARK   96  A    between atoms: _240  and  _243
REMARK   97  A    between atoms: _243  and  _244
REMARK   98  A    between atoms: _246  and  _248
REMARK   99  A    between atoms: _248  and  _249
REMARK  100  A    between atoms: _252  and  _254
REMARK  101  A    between atoms: _254  and  _255
REMARK  102  A    between atoms: _254  and  _257
REMARK  103  A    between atoms: _257  and  _258
REMARK  104  A    between atoms: _260  and  _262
REMARK  105  A    between atoms: _262  and  _263
REMARK  106  A    between atoms: _262  and  _265
REMARK  107  A    between atoms: _265  and  _266
REMARK  108  A    between atoms: _268  and  _270
REMARK  109  A    between atoms: _270  and  _271
REMARK  110  A    between atoms: _270  and  _273
REMARK  111  A    between atoms: _273  and  _274
REMARK  112  A    between atoms: _279  and  _281
REMARK  113  A    between atoms: _281  and  _282
REMARK  114  A    between atoms: _281  and  _284
REMARK  115  A    between atoms: _284  and  _285
REMARK  116  A    between atoms: _285  and  _286
REMARK  117  A    between atoms: _289  and  _291
REMARK  118  A    between atoms: _291  and  _292
REMARK  119  A    between atoms: _291  and  _294
REMARK  120  A    between atoms: _294  and  _295
REMARK  121  A    between atoms: _295  and  _296
REMARK  122  A    between atoms: _299  and  _301
REMARK  123  A    between atoms: _301  and  _302
REMARK  124  A    between atoms: _301  and  _304
REMARK  125  A    between atoms: _304  and  _305
REMARK  126  A    between atoms: _305  and  _306
REMARK  127  A    between atoms: _306  and  _307
REMARK  128  A    between atoms: _316  and  _318
REMARK  129  A    between atoms: _318  and  _319
REMARK  130  A    between atoms: _318  and  _321
REMARK  131  A    between atoms: _321  and  _322
REMARK  132  A    between atoms: _327  and  _329
REMARK  133  A    between atoms: _329  and  _330
REMARK  134  A    between atoms: _329  and  _332
REMARK  135  A    between atoms: _332  and  _333
REMARK  136  A    between atoms: _336  and  _338
REMARK  137  A    between atoms: _338  and  _339
REMARK  138  A    between atoms: _341  and  _343
REMARK  139  A    between atoms: _343  and  _344
REMARK  140  A    between atoms: _346  and  _348
REMARK  141  A    between atoms: _348  and  _349
REMARK  142  A    between atoms: _348  and  _351
REMARK  143  A    between atoms: _351  and  _352
REMARK  144  A    between atoms: _355  and  _357
REMARK  145  A    between atoms: _357  and  _358
REMARK  146  A    between atoms: _357  and  _360
REMARK  147  A    between atoms: _360  and  _361
REMARK  148  A    between atoms: _361  and  _362
REMARK  149  A    between atoms: _362  and  _363
REMARK  150  A    between atoms: _363  and  _364
REMARK  151  A    between atoms: _368  and  _370
REMARK  152  A    between atoms: _370  and  _371
REMARK  153  A    between atoms: _370  and  _373
REMARK  154  A    between atoms: _373  and  _374
REMARK  155  A    between atoms: _374  and  _375
REMARK  156  A    between atoms: _375  and  _376
REMARK  157  A    between atoms: _385  and  _387
REMARK  158  A    between atoms: _387  and  _388
REMARK  159  A    between atoms: _387  and  _390
REMARK  160  A    between atoms: _390  and  _391
REMARK  161  A    between atoms: _401  and  _403
REMARK  162  A    between atoms: _403  and  _404
REMARK  163  A    between atoms: _403  and  _406
REMARK  164  A    between atoms: _406  and  _407
REMARK  165  A    between atoms: _412  and  _413
REMARK  166  A    between atoms: _415  and  _417
REMARK  167  A    between atoms: _417  and  _418
REMARK  168  A    between atoms: _417  and  _420
REMARK  169  A    between atoms: _420  and  _421
REMARK  170  A    between atoms: _421  and  _422
REMARK  171  A    between atoms: _425  and  _427
REMARK  172  A    between atoms: _427  and  _428
REMARK  173  A    between atoms: _427  and  _430
REMARK  174  A    between atoms: _433  and  _435
REMARK  175  A    between atoms: _435  and  _436
REMARK  176  A    between atoms: _435  and  _438
REMARK  177  A    between atoms: _438  and  _439
REMARK                            x       y       z     vdW  Elec       q    Type
REMARK                         _______ _______ _______ _____ _____    ______ ____
ROOT
ATOM      1  CA  ILE A   3     -21.698  87.928   5.704  0.00  0.00    +0.149 C 
ENDROOT
BRANCH   1   4
ATOM      2  C   GLY A   2     -20.629  90.038   5.187  0.00  0.00    +0.243 C 
ATOM      3  O   GLY A   2     -21.488  90.677   5.790  0.00  0.00    -0.273 OA
ATOM      4  N   ILE A   3     -20.650  88.725   5.085  0.00  0.00    -0.297 N 
ATOM      5  H   ILE A   3     -19.899  88.246   4.549  0.00  0.00    +0.150 HD
BRANCH   2   6
ATOM      6  CA  GLY A   2     -19.482  90.716   4.477  0.00  0.00    +0.176 C 
BRANCH   6   8
ATOM      7  C   GLY A   1     -18.381  92.837   4.320  0.00  0.00    +0.240 C 
ATOM      8  N   GLY A   2     -19.452  92.150   4.673  0.00  0.00    -0.295 N 
ATOM      9  H   GLY A   2     -20.271  92.637   5.090  0.00  0.00    +0.150 HD
ATOM     10  O   GLY A   1     -17.407  92.306   3.774  0.00  0.00    -0.274 OA
BRANCH   7  11
ATOM     11  CA  GLY A   1     -18.390  94.313   4.649  0.00  0.00    +0.169 C 
BRANCH  11  12
ATOM     12  N   GLY A   1     -17.144  94.922   4.219  0.00  0.00    -0.236 NA
ATOM     13  H   GLY A   1     -16.348  94.963   4.887  0.00  0.00    +0.142 HD
ENDBRANCH  11  12
ENDBRANCH   7  11
ENDBRANCH   6   8
ENDBRANCH   2   6
ENDBRANCH   1   4
BRANCH   1  14
ATOM     14  C   ILE A   3     -21.191  86.502   5.862  0.00  0.00    +0.241 C 
ATOM     15  N   LYS A   4     -21.565  85.811   6.952  0.00  0.00    -0.298 N 
ATOM     16  H   LYS A   4     -22.100  86.291   7.704  0.00  0.00    +0.150 HD
ATOM     17  O   ILE A   3     -20.423  86.044   5.022  0.00  0.00    -0.273 OA
BRANCH  15  18
ATOM     18  CA  LYS A   4     -21.228  84.379   7.098  0.00  0.00    +0.137 C 
BRANCH  18  19
ATOM     19  C   LYS A   4     -22.010  83.551   6.078  0.00  0.00    +0.227 C 
ATOM     20  O   LYS A   4     -23.223  83.727   5.951  0.00  0.00    -0.286 OA
ENDBRANCH  18  19
BRANCH  18  21
ATOM     21  CB  LYS A   4     -21.586  83.859   8.496  0.00  0.00    +0.028 C 
BRANCH  21  22
ATOM     22  CG  LYS A   4     -21.169  82.414   8.691  0.00  0.00    -0.000 C 
BRANCH  22  23
ATOM     23  CD  LYS A   4     -21.448  81.908  10.095  0.00  0.00    -0.024 C 
BRANCH  23  24
ATOM     24  CE  LYS A   4     -21.257  80.404  10.162  0.00  0.00    -0.086 C 
BRANCH  24  25
ATOM     25  NZ  LYS A   4     -19.831  79.952  10.095  0.00  0.00    +0.380 N 
ATOM     26  HZ1 LYS A   4     -19.302  80.359  10.892  0.00  0.00    -0.089 HD
ATOM     27  HZ2 LYS A   4     -19.795  78.914  10.147  0.00  0.00    -0.089 HD
ATOM     28  HZ3 LYS A   4     -19.410  80.270   9.199  0.00  0.00    -0.089 HD
ENDBRANCH  24  25
ENDBRANCH  23  24
ENDBRANCH  22  23
ENDBRANCH  21  22
ENDBRANCH  18  21
ENDBRANCH  15  18
ENDBRANCH   1  14
BRANCH   1  29
ATOM     29  CB  ILE A   3     -23.000  88.000   4.848  0.00  0.00    +0.027 C 
ATOM     30  CG2 ILE A   3     -22.886  87.155   3.579  0.00  0.00    +0.002 C 
BRANCH  29  31
ATOM     31  CG1 ILE A   3     -24.224  87.577   5.666  0.00  0.00    +0.002 C 
ATOM     32  CD1 ILE A   3     -25.534  87.740   4.900  0.00  0.00    +0.000 C 
ENDBRANCH  29  31
ENDBRANCH   1  29
TORSDOF 15
REMARK  Name = ../refined-set-2016/4cpy/4cpy_pocket.pdb
REMARK  177 active torsions:
REMARK  status: ('A' for Active; 'I' for Inactive)
REMARK    1  A    between atoms: _1  and  _3
REMARK    2  A    between atoms: _3  and  _4
REMARK    3  A    between atoms: _3  and  _6
REMARK    4  A    between atoms: _6  and  _7
REMARK    5  A    between atoms: _7  and  _8
REMARK    6  A    between atoms: _8  and  _9
REMARK    7  A    between atoms: _18  and  _20
REMARK    8  A    between atoms: _20  and  _21
REMARK    9  A    between atoms: _20  and  _23
REMARK   10  A    between atoms: _23  and  _24
REMARK   11  A    between atoms: _24  and  _25
REMARK   12  A    between atoms: _28  and  _30
REMARK   13  A    between atoms: _30  and  _31
REMARK   14  A    between atoms: _30  and  _33
REMARK   15  A    between atoms: _33  and  _34
REMARK   16  A    between atoms: _37  and  _39
REMARK   17  A    between atoms: _39  and  _40
REMARK   18  A    between atoms: _39  and  _42
REMARK   19  A    between atoms: _42  and  _43
REMARK   20  A    between atoms: _48  and  _50
REMARK   21  A    between atoms: _50  and  _51
REMARK   22  A    between atoms: _50  and  _53
REMARK   23  A    between atoms: _53  and  _54
REMARK   24  A    between atoms: _54  and  _55
REMARK   25  A    between atoms: _55  and  _56
REMARK   26  A    between atoms: _65  and  _67
REMARK   27  A    between atoms: _67  and  _68
REMARK   28  A    between atoms: _70  and  _72
REMARK   29  A    between atoms: _72  and  _73
REMARK   30  A    between atoms: _72  and  _75
REMARK   31  A    between atoms: _75  and  _76
REMARK   32  A    between atoms: _79  and  _81
REMARK   33  A    between atoms: _81  and  _82
REMARK   34  A    between atoms: _81  and  _84
REMARK   35  A    between atoms: _84  and  _85
REMARK   36  A    between atoms: _85  and  _86
REMARK   37  A    between atoms: _86  and  _87
REMARK   38  A    between atoms: _96  and  _98
REMARK   39  A    between atoms: _98  and  _99
REMARK   40  A    between atoms: _98  and  _101
REMARK   41  A    between atoms: _101  and  _102
REMARK   42  A    between atoms: _107  and  _109
REMARK   43  A    between atoms: _109  and  _110
REMARK   44  A    between atoms: _109  and  _112
REMARK   45  A    between atoms: _112  and  _113
REMARK   46  A    between atoms: _113  and  _114
REMARK   47  A    between atoms: _114  and  _115
REMARK   48  A    between atoms: _124  and  _126
REMARK   49  A    between atoms: _126  and  _127
REMARK   50  A    between atoms: _126  and  _129
REMARK   51  A    between atoms: _129  and  _130
REMARK   52  A    between atoms: _140  and  _142
REMARK   53  A    between atoms: _142  and  _143
REMARK   54  A    between atoms: _142  and  _145
REMARK   55  A    between atoms: _145  and  _146
REMARK   56  A    between atoms: _148  and  _150
REMARK   57  A    between atoms: _150  and  _151
REMARK   58  A    between atoms: _153  and  _155
REMARK   59  A    between atoms: _155  and  _156
REMARK   60  A    between atoms: _155  and  _158
REMARK   61  A    between atoms: _161  and  _163
REMARK   62  A    between atoms: _163  and  _164
REMARK   63  A    between atoms: _163  and  _166
REMARK   64  A    between atoms: _166  and  _167
REMARK   65  A    between atoms: _170  and  _172
REMARK   66  A    between atoms: _172  and  _173
REMARK   67  A    between atoms: _172  and  _175
REMARK   68  A    between atoms: _175  and  _176
REMARK   69  A    between atoms: _179  and  _181
REMARK   70  A    between atoms: _181  and  _182
REMARK   71  A    between atoms: _181  and  _184
REMARK   72  A    between atoms: _184  and  _185
REMARK   73  A    between atoms: _188  and  _190
REMARK   74  A    between atoms: _190  and  _191
REMARK   75  A    between atoms: _190  and  _193
REMARK   76  A    between atoms: _193  and  _194
REMARK   77  A    between atoms: _194  and  _195
REMARK   78  A    between atoms: _195  and  _196
REMARK   79  A    between atoms: _205  and  _207
REMARK   80  A    between atoms: _207  and  _208
REMARK   81  A    between atoms: _207  and  _210
REMARK   82  A    between atoms: _210  and  _211
REMARK   83  A    between atoms: _214  and  _216
REMARK   84  A    between atoms: _216  and  _217
REMARK   85  A    between atoms: _216  and  _219
REMARK   86  A    between atoms: _219  and  _220
REMARK   87  A    between atoms: _220  and  _221
REMARK   88  A    between atoms: _224  and  _226
REMARK   89  A    between atoms: _226  and  _227
REMARK   90  A    between atoms: _226  and  _229
REMARK   91  A    between atoms: _229  and  _230
REMARK   92  A    between atoms: _233  and  _235
REMARK   93  A    between atoms: _235  and  _236
REMARK   94  A    between atoms: _238  and  _240
REMARK   95  A    between atoms: _240  and  _241
REMARK   96  A    between atoms: _240  and  _243
REMARK   97  A    between atoms: _243  and  _244
REMARK   98  A    between atoms: _246  and  _248
REMARK   99  A    between atoms: _248  and  _249
REMARK  100  A    between atoms: _252  and  _254
REMARK  101  A    between atoms: _254  and  _255
REMARK  102  A    between atoms: _254  and  _257
REMARK  103  A    between atoms: _257  and  _258
REMARK  104  A    between atoms: _260  and  _262
REMARK  105  A    between atoms: _262  and  _263
REMARK  106  A    between atoms: _262  and  _265
REMARK  107  A    between atoms: _265  and  _266
REMARK  108  A    between atoms: _268  and  _270
REMARK  109  A    between atoms: _270  and  _271
REMARK  110  A    between atoms: _270  and  _273
REMARK  111  A    between atoms: _273  and  _274
REMARK  112  A    between atoms: _279  and  _281
REMARK  113  A    between atoms: _281  and  _282
REMARK  114  A    between atoms: _281  and  _284
REMARK  115  A    between atoms: _284  and  _285
REMARK  116  A    between atoms: _285  and  _286
REMARK  117  A    between atoms: _289  and  _291
REMARK  118  A    between atoms: _291  and  _292
REMARK  119  A    between atoms: _291  and  _294
REMARK  120  A    between atoms: _294  and  _295
REMARK  121  A    between atoms: _295  and  _296
REMARK  122  A    between atoms: _299  and  _301
REMARK  123  A    between atoms: _301  and  _302
REMARK  124  A    between atoms: _301  and  _304
REMARK  125  A    between atoms: _304  and  _305
REMARK  126  A    between atoms: _305  and  _306
REMARK  127  A    between atoms: _306  and  _307
REMARK  128  A    between atoms: _316  and  _318
REMARK  129  A    between atoms: _318  and  _319
REMARK  130  A    between atoms: _318  and  _321
REMARK  131  A    between atoms: _321  and  _322
REMARK  132  A    between atoms: _327  and  _329
REMARK  133  A    between atoms: _329  and  _330
REMARK  134  A    between atoms: _329  and  _332
REMARK  135  A    between atoms: _332  and  _333
REMARK  136  A    between atoms: _336  and  _338
REMARK  137  A    between atoms: _338  and  _339
REMARK  138  A    between atoms: _341  and  _343
REMARK  139  A    between atoms: _343  and  _344
REMARK  140  A    between atoms: _346  and  _348
REMARK  141  A    between atoms: _348  and  _349
REMARK  142  A    between atoms: _348  and  _351
REMARK  143  A    between atoms: _351  and  _352
REMARK  144  A    between atoms: _355  and  _357
REMARK  145  A    between atoms: _357  and  _358
REMARK  146  A    between atoms: _357  and  _360
REMARK  147  A    between atoms: _360  and  _361
REMARK  148  A    between atoms: _361  and  _362
REMARK  149  A    between atoms: _362  and  _363
REMARK  150  A    between atoms: _363  and  _364
REMARK  151  A    between atoms: _368  and  _370
REMARK  152  A    between atoms: _370  and  _371
REMARK  153  A    between atoms: _370  and  _373
REMARK  154  A    between atoms: _373  and  _374
REMARK  155  A    between atoms: _374  and  _375
REMARK  156  A    between atoms: _375  and  _376
REMARK  157  A    between atoms: _385  and  _387
REMARK  158  A    between atoms: _387  and  _388
REMARK  159  A    between atoms: _387  and  _390
REMARK  160  A    between atoms: _390  and  _391
REMARK  161  A    between atoms: _401  and  _403
REMARK  162  A    between atoms: _403  and  _404
REMARK  163  A    between atoms: _403  and  _406
REMARK  164  A    between atoms: _406  and  _407
REMARK  165  A    between atoms: _412  and  _413
REMARK  166  A    between atoms: _415  and  _417
REMARK  167  A    between atoms: _417  and  _418
REMARK  168  A    between atoms: _417  and  _420
REMARK  169  A    between atoms: _420  and  _421
REMARK  170  A    between atoms: _421  and  _422
REMARK  171  A    between atoms: _425  and  _427
REMARK  172  A    between atoms: _427  and  _428
REMARK  173  A    between atoms: _427  and  _430
REMARK  174  A    between atoms: _433  and  _435
REMARK  175  A    between atoms: _435  and  _436
REMARK  176  A    between atoms: _435  and  _438
REMARK  177  A    between atoms: _438  and  _439
REMARK                            x       y       z     vdW  Elec       q    Type
REMARK                         _______ _______ _______ _____ _____    ______ ____
ROOT
ATOM      1  NE  ARG A   1     -25.534  91.112   6.550  0.00  0.00    -0.265 N 
ATOM      2  CZ  ARG A   1     -24.832  91.003   7.675  0.00  0.00    +0.342 C 
ATOM      3  NH2 ARG A   1     -25.459  90.897   8.833  0.00  0.00    -0.292 N 
ATOM      4 HH21 ARG A   1     -24.913  90.812   9.714  0.00  0.00    +0.255 HD
ATOM      5 HH22 ARG A   1     -26.499  90.899   8.864  0.00  0.00    +0.255 HD
ATOM      6  NH1 ARG A   1     -23.501  91.035   7.650  0.00  0.00    -0.292 N 
ATOM      7 HH11 ARG A   1     -22.962  90.949   8.535  0.00  0.00    +0.255 HD
ATOM      8 HH12 ARG A   1     -23.000  91.146   6.745  0.00  0.00    +0.255 HD
ATOM      9  HE  ARG A   1     -25.010  91.240   5.661  0.00  0.00    +0.259 HD
ENDROOT
BRANCH   1  10
ATOM     10  CD  ARG A   1     -26.993  91.064   6.483  0.00  0.00    +0.174 C 
BRANCH  10  11
ATOM     11  CG  ARG A   1     -27.470  91.180   5.051  0.00  0.00    +0.045 C 
BRANCH  11  12
ATOM     12  CB  ARG A   1     -28.933  90.796   4.861  0.00  0.00    +0.029 C 
BRANCH  12  13
ATOM     13  CA  ARG A   1     -29.310  90.764   3.364  0.00  0.00    +0.133 C 
BRANCH  13  14
ATOM     14  N   ARG A   1     -29.064  92.068   2.767  0.00  0.00    -0.239 NA
ATOM     15  H   ARG A   1     -29.153  92.915   3.364  0.00  0.00    +0.142 HD
ENDBRANCH  13  14
BRANCH  13  16
ATOM     16  C   ARG A   1     -30.773  90.363   3.110  0.00  0.00    +0.224 C 
ATOM     17  O   ARG A   1     -31.591  90.263   4.038  0.00  0.00    -0.287 OA
ENDBRANCH  13  16
ENDBRANCH  12  13
ENDBRANCH  11  12
ENDBRANCH  10  11
ENDBRANCH   1  10
TORSDOF 6
REMARK  Name = ../refined-set-2016/4cpy/4cpy_pocket.pdb
REMARK  177 active torsions:
REMARK  status: ('A' for Active; 'I' for Inactive)
REMARK    1  A    between atoms: _1  and  _3
REMARK    2  A    between atoms: _3  and  _4
REMARK    3  A    between atoms: _3  and  _6
REMARK    4  A    between atoms: _6  and  _7
REMARK    5  A    between atoms: _7  and  _8
REMARK    6  A    between atoms: _8  and  _9
REMARK    7  A    between atoms: _18  and  _20
REMARK    8  A    between atoms: _20  and  _21
REMARK    9  A    between atoms: _20  and  _23
REMARK   10  A    between atoms: _23  and  _24
REMARK   11  A    between atoms: _24  and  _25
REMARK   12  A    between atoms: _28  and  _30
REMARK   13  A    between atoms: _30  and  _31
REMARK   14  A    between atoms: _30  and  _33
REMARK   15  A    between atoms: _33  and  _34
REMARK   16  A    between atoms: _37  and  _39
REMARK   17  A    between atoms: _39  and  _40
REMARK   18  A    between atoms: _39  and  _42
REMARK   19  A    between atoms: _42  and  _43
REMARK   20  A    between atoms: _48  and  _50
REMARK   21  A    between atoms: _50  and  _51
REMARK   22  A    between atoms: _50  and  _53
REMARK   23  A    between atoms: _53  and  _54
REMARK   24  A    between atoms: _54  and  _55
REMARK   25  A    between atoms: _55  and  _56
REMARK   26  A    between atoms: _65  and  _67
REMARK   27  A    between atoms: _67  and  _68
REMARK   28  A    between atoms: _70  and  _72
REMARK   29  A    between atoms: _72  and  _73
REMARK   30  A    between atoms: _72  and  _75
REMARK   31  A    between atoms: _75  and  _76
REMARK   32  A    between atoms: _79  and  _81
REMARK   33  A    between atoms: _81  and  _82
REMARK   34  A    between atoms: _81  and  _84
REMARK   35  A    between atoms: _84  and  _85
REMARK   36  A    between atoms: _85  and  _86
REMARK   37  A    between atoms: _86  and  _87
REMARK   38  A    between atoms: _96  and  _98
REMARK   39  A    between atoms: _98  and  _99
REMARK   40  A    between atoms: _98  and  _101
REMARK   41  A    between atoms: _101  and  _102
REMARK   42  A    between atoms: _107  and  _109
REMARK   43  A    between atoms: _109  and  _110
REMARK   44  A    between atoms: _109  and  _112
REMARK   45  A    between atoms: _112  and  _113
REMARK   46  A    between atoms: _113  and  _114
REMARK   47  A    between atoms: _114  and  _115
REMARK   48  A    between atoms: _124  and  _126
REMARK   49  A    between atoms: _126  and  _127
REMARK   50  A    between atoms: _126  and  _129
REMARK   51  A    between atoms: _129  and  _130
REMARK   52  A    between atoms: _140  and  _142
REMARK   53  A    between atoms: _142  and  _143
REMARK   54  A    between atoms: _142  and  _145
REMARK   55  A    between atoms: _145  and  _146
REMARK   56  A    between atoms: _148  and  _150
REMARK   57  A    between atoms: _150  and  _151
REMARK   58  A    between atoms: _153  and  _155
REMARK   59  A    between atoms: _155  and  _156
REMARK   60  A    between atoms: _155  and  _158
REMARK   61  A    between atoms: _161  and  _163
REMARK   62  A    between atoms: _163  and  _164
REMARK   63  A    between atoms: _163  and  _166
REMARK   64  A    between atoms: _166  and  _167
REMARK   65  A    between atoms: _170  and  _172
REMARK   66  A    between atoms: _172  and  _173
REMARK   67  A    between atoms: _172  and  _175
REMARK   68  A    between atoms: _175  and  _176
REMARK   69  A    between atoms: _179  and  _181
REMARK   70  A    between atoms: _181  and  _182
REMARK   71  A    between atoms: _181  and  _184
REMARK   72  A    between atoms: _184  and  _185
REMARK   73  A    between atoms: _188  and  _190
REMARK   74  A    between atoms: _190  and  _191
REMARK   75  A    between atoms: _190  and  _193
REMARK   76  A    between atoms: _193  and  _194
REMARK   77  A    between atoms: _194  and  _195
REMARK   78  A    between atoms: _195  and  _196
REMARK   79  A    between atoms: _205  and  _207
REMARK   80  A    between atoms: _207  and  _208
REMARK   81  A    between atoms: _207  and  _210
REMARK   82  A    between atoms: _210  and  _211
REMARK   83  A    between atoms: _214  and  _216
REMARK   84  A    between atoms: _216  and  _217
REMARK   85  A    between atoms: _216  and  _219
REMARK   86  A    between atoms: _219  and  _220
REMARK   87  A    between atoms: _220  and  _221
REMARK   88  A    between atoms: _224  and  _226
REMARK   89  A    between atoms: _226  and  _227
REMARK   90  A    between atoms: _226  and  _229
REMARK   91  A    between atoms: _229  and  _230
REMARK   92  A    between atoms: _233  and  _235
REMARK   93  A    between atoms: _235  and  _236
REMARK   94  A    between atoms: _238  and  _240
REMARK   95  A    between atoms: _240  and  _241
REMARK   96  A    between atoms: _240  and  _243
REMARK   97  A    between atoms: _243  and  _244
REMARK   98  A    between atoms: _246  and  _248
REMARK   99  A    between atoms: _248  and  _249
REMARK  100  A    between atoms: _252  and  _254
REMARK  101  A    between atoms: _254  and  _255
REMARK  102  A    between atoms: _254  and  _257
REMARK  103  A    between atoms: _257  and  _258
REMARK  104  A    between atoms: _260  and  _262
REMARK  105  A    between atoms: _262  and  _263
REMARK  106  A    between atoms: _262  and  _265
REMARK  107  A    between atoms: _265  and  _266
REMARK  108  A    between atoms: _268  and  _270
REMARK  109  A    between atoms: _270  and  _271
REMARK  110  A    between atoms: _270  and  _273
REMARK  111  A    between atoms: _273  and  _274
REMARK  112  A    between atoms: _279  and  _281
REMARK  113  A    between atoms: _281  and  _282
REMARK  114  A    between atoms: _281  and  _284
REMARK  115  A    between atoms: _284  and  _285
REMARK  116  A    between atoms: _285  and  _286
REMARK  117  A    between atoms: _289  and  _291
REMARK  118  A    between atoms: _291  and  _292
REMARK  119  A    between atoms: _291  and  _294
REMARK  120  A    between atoms: _294  and  _295
REMARK  121  A    between atoms: _295  and  _296
REMARK  122  A    between atoms: _299  and  _301
REMARK  123  A    between atoms: _301  and  _302
REMARK  124  A    between atoms: _301  and  _304
REMARK  125  A    between atoms: _304  and  _305
REMARK  126  A    between atoms: _305  and  _306
REMARK  127  A    between atoms: _306  and  _307
REMARK  128  A    between atoms: _316  and  _318
REMARK  129  A    between atoms: _318  and  _319
REMARK  130  A    between atoms: _318  and  _321
REMARK  131  A    between atoms: _321  and  _322
REMARK  132  A    between atoms: _327  and  _329
REMARK  133  A    between atoms: _329  and  _330
REMARK  134  A    between atoms: _329  and  _332
REMARK  135  A    between atoms: _332  and  _333
REMARK  136  A    between atoms: _336  and  _338
REMARK  137  A    between atoms: _338  and  _339
REMARK  138  A    between atoms: _341  and  _343
REMARK  139  A    between atoms: _343  and  _344
REMARK  140  A    between atoms: _346  and  _348
REMARK  141  A    between atoms: _348  and  _349
REMARK  142  A    between atoms: _348  and  _351
REMARK  143  A    between atoms: _351  and  _352
REMARK  144  A    between atoms: _355  and  _357
REMARK  145  A    between atoms: _357  and  _358
REMARK  146  A    between atoms: _357  and  _360
REMARK  147  A    between atoms: _360  and  _361
REMARK  148  A    between atoms: _361  and  _362
REMARK  149  A    between atoms: _362  and  _363
REMARK  150  A    between atoms: _363  and  _364
REMARK  151  A    between atoms: _368  and  _370
REMARK  152  A    between atoms: _370  and  _371
REMARK  153  A    between atoms: _370  and  _373
REMARK  154  A    between atoms: _373  and  _374
REMARK  155  A    between atoms: _374  and  _375
REMARK  156  A    between atoms: _375  and  _376
REMARK  157  A    between atoms: _385  and  _387
REMARK  158  A    between atoms: _387  and  _388
REMARK  159  A    between atoms: _387  and  _390
REMARK  160  A    between atoms: _390  and  _391
REMARK  161  A    between atoms: _401  and  _403
REMARK  162  A    between atoms: _403  and  _404
REMARK  163  A    between atoms: _403  and  _406
REMARK  164  A    between atoms: _406  and  _407
REMARK  165  A    between atoms: _412  and  _413
REMARK  166  A    between atoms: _415  and  _417
REMARK  167  A    between atoms: _417  and  _418
REMARK  168  A    between atoms: _417  and  _420
REMARK  169  A    between atoms: _420  and  _421
REMARK  170  A    between atoms: _421  and  _422
REMARK  171  A    between atoms: _425  and  _427
REMARK  172  A    between atoms: _427  and  _428
REMARK  173  A    between atoms: _427  and  _430
REMARK  174  A    between atoms: _433  and  _435
REMARK  175  A    between atoms: _435  and  _436
REMARK  176  A    between atoms: _435  and  _438
REMARK  177  A    between atoms: _438  and  _439
REMARK                            x       y       z     vdW  Elec       q    Type
REMARK                         _______ _______ _______ _____ _____    ______ ____
ROOT
ATOM      1  C   TRP A   1     -27.624  85.683   6.885  0.00  0.00    +0.239 C 
ATOM      2  N   TYR A   2     -27.170  85.238   8.053  0.00  0.00    -0.298 N 
ATOM      3  H   TYR A   2     -27.567  85.616   8.936  0.00  0.00    +0.150 HD
ATOM      4  O   TRP A   1     -27.214  85.218   5.826  0.00  0.00    -0.274 OA
ENDROOT
BRANCH   1   5
ATOM      5  CA  TRP A   1     -28.686  86.806   6.863  0.00  0.00    +0.149 C 
BRANCH   5   6
ATOM      6  N   TRP A   1     -29.874  86.351   6.169  0.00  0.00    -0.238 NA
ATOM      7  H   TRP A   1     -30.500  85.665   6.637  0.00  0.00    +0.142 HD
ENDBRANCH   5   6
BRANCH   5   8
ATOM      8  CB  TRP A   1     -29.055  87.370   8.248  0.00  0.00    +0.054 C 
BRANCH   8   9
ATOM      9  CG  TRP A   1     -29.789  88.718   8.185  0.00  0.00    -0.002 A 
ATOM     10  CD2 TRP A   1     -29.466  89.906   8.931  0.00  0.00    +0.013 A 
ATOM     11  CE3 TRP A   1     -28.516  90.201   9.924  0.00  0.00    +0.001 A 
ATOM     12  CZ3 TRP A   1     -28.490  91.492  10.461  0.00  0.00    +0.000 A 
ATOM     13  CH2 TRP A   1     -29.425  92.464  10.067  0.00  0.00    +0.001 A 
ATOM     14  CZ2 TRP A   1     -30.389  92.191   9.122  0.00  0.00    +0.017 A 
ATOM     15  CE2 TRP A   1     -30.398  90.901   8.560  0.00  0.00    +0.056 A 
ATOM     16  NE1 TRP A   1     -31.227  90.356   7.611  0.00  0.00    -0.352 N 
ATOM     17  HE1 TRP A   1     -31.999  90.855   7.124  0.00  0.00    +0.166 HD
ATOM     18  CD1 TRP A   1     -30.871  89.044   7.409  0.00  0.00    +0.068 A 
ENDBRANCH   8   9
ENDBRANCH   5   8
ENDBRANCH   1   5
BRANCH   2  19
ATOM     19  CA  TYR A   2     -26.126  84.230   8.110  0.00  0.00    +0.141 C 
BRANCH  19  20
ATOM     20  C   TYR A   2     -26.650  82.913   7.558  0.00  0.00    +0.227 C 
ATOM     21  O   TYR A   2     -27.846  82.653   7.602  0.00  0.00    -0.286 OA
ENDBRANCH  19  20
BRANCH  19  22
ATOM     22  CB  TYR A   2     -25.625  84.050   9.537  0.00  0.00    +0.054 C 
BRANCH  22  23
ATOM     23  CG  TYR A   2     -24.619  85.109   9.990  0.00  0.00    -0.020 A 
ATOM     24  CD2 TYR A   2     -23.874  84.915  11.133  0.00  0.00    -0.001 A 
ATOM     25  CE2 TYR A   2     -22.941  85.852  11.558  0.00  0.00    +0.036 A 
ATOM     26  CZ  TYR A   2     -22.789  87.032  10.860  0.00  0.00    +0.134 A 
ATOM     27  CE1 TYR A   2     -23.531  87.269   9.731  0.00  0.00    +0.036 A 
ATOM     28  CD1 TYR A   2     -24.451  86.323   9.301  0.00  0.00    -0.001 A 
BRANCH  26  29
ATOM     29  OH  TYR A   2     -21.854  87.939  11.298  0.00  0.00    -0.506 OA
ATOM     30  HH  TYR A   2     -20.957  87.520  11.284  0.00  0.00    +0.292 HD
ENDBRANCH  26  29
ENDBRANCH  22  23
ENDBRANCH  19  22
ENDBRANCH   2  19
TORSDOF 9
REMARK  Name = ../refined-set-2016/4cpy/4cpy_pocket.pdb
REMARK  177 active torsions:
REMARK  status: ('A' for Active; 'I' for Inactive)
REMARK    1  A    between atoms: _1  and  _3
REMARK    2  A    between atoms: _3  and  _4
REMARK    3  A    between atoms: _3  and  _6
REMARK    4  A    between atoms: _6  and  _7
REMARK    5  A    between atoms: _7  and  _8
REMARK    6  A    between atoms: _8  and  _9
REMARK    7  A    between atoms: _18  and  _20
REMARK    8  A    between atoms: _20  and  _21
REMARK    9  A    between atoms: _20  and  _23
REMARK   10  A    between atoms: _23  and  _24
REMARK   11  A    between atoms: _24  and  _25
REMARK   12  A    between atoms: _28  and  _30
REMARK   13  A    between atoms: _30  and  _31
REMARK   14  A    between atoms: _30  and  _33
REMARK   15  A    between atoms: _33  and  _34
REMARK   16  A    between atoms: _37  and  _39
REMARK   17  A    between atoms: _39  and  _40
REMARK   18  A    between atoms: _39  and  _42
REMARK   19  A    between atoms: _42  and  _43
REMARK   20  A    between atoms: _48  and  _50
REMARK   21  A    between atoms: _50  and  _51
REMARK   22  A    between atoms: _50  and  _53
REMARK   23  A    between atoms: _53  and  _54
REMARK   24  A    between atoms: _54  and  _55
REMARK   25  A    between atoms: _55  and  _56
REMARK   26  A    between atoms: _65  and  _67
REMARK   27  A    between atoms: _67  and  _68
REMARK   28  A    between atoms: _70  and  _72
REMARK   29  A    between atoms: _72  and  _73
REMARK   30  A    between atoms: _72  and  _75
REMARK   31  A    between atoms: _75  and  _76
REMARK   32  A    between atoms: _79  and  _81
REMARK   33  A    between atoms: _81  and  _82
REMARK   34  A    between atoms: _81  and  _84
REMARK   35  A    between atoms: _84  and  _85
REMARK   36  A    between atoms: _85  and  _86
REMARK   37  A    between atoms: _86  and  _87
REMARK   38  A    between atoms: _96  and  _98
REMARK   39  A    between atoms: _98  and  _99
REMARK   40  A    between atoms: _98  and  _101
REMARK   41  A    between atoms: _101  and  _102
REMARK   42  A    between atoms: _107  and  _109
REMARK   43  A    between atoms: _109  and  _110
REMARK   44  A    between atoms: _109  and  _112
REMARK   45  A    between atoms: _112  and  _113
REMARK   46  A    between atoms: _113  and  _114
REMARK   47  A    between atoms: _114  and  _115
REMARK   48  A    between atoms: _124  and  _126
REMARK   49  A    between atoms: _126  and  _127
REMARK   50  A    between atoms: _126  and  _129
REMARK   51  A    between atoms: _129  and  _130
REMARK   52  A    between atoms: _140  and  _142
REMARK   53  A    between atoms: _142  and  _143
REMARK   54  A    between atoms: _142  and  _145
REMARK   55  A    between atoms: _145  and  _146
REMARK   56  A    between atoms: _148  and  _150
REMARK   57  A    between atoms: _150  and  _151
REMARK   58  A    between atoms: _153  and  _155
REMARK   59  A    between atoms: _155  and  _156
REMARK   60  A    between atoms: _155  and  _158
REMARK   61  A    between atoms: _161  and  _163
REMARK   62  A    between atoms: _163  and  _164
REMARK   63  A    between atoms: _163  and  _166
REMARK   64  A    between atoms: _166  and  _167
REMARK   65  A    between atoms: _170  and  _172
REMARK   66  A    between atoms: _172  and  _173
REMARK   67  A    between atoms: _172  and  _175
REMARK   68  A    between atoms: _175  and  _176
REMARK   69  A    between atoms: _179  and  _181
REMARK   70  A    between atoms: _181  and  _182
REMARK   71  A    between atoms: _181  and  _184
REMARK   72  A    between atoms: _184  and  _185
REMARK   73  A    between atoms: _188  and  _190
REMARK   74  A    between atoms: _190  and  _191
REMARK   75  A    between atoms: _190  and  _193
REMARK   76  A    between atoms: _193  and  _194
REMARK   77  A    between atoms: _194  and  _195
REMARK   78  A    between atoms: _195  and  _196
REMARK   79  A    between atoms: _205  and  _207
REMARK   80  A    between atoms: _207  and  _208
REMARK   81  A    between atoms: _207  and  _210
REMARK   82  A    between atoms: _210  and  _211
REMARK   83  A    between atoms: _214  and  _216
REMARK   84  A    between atoms: _216  and  _217
REMARK   85  A    between atoms: _216  and  _219
REMARK   86  A    between atoms: _219  and  _220
REMARK   87  A    between atoms: _220  and  _221
REMARK   88  A    between atoms: _224  and  _226
REMARK   89  A    between atoms: _226  and  _227
REMARK   90  A    between atoms: _226  and  _229
REMARK   91  A    between atoms: _229  and  _230
REMARK   92  A    between atoms: _233  and  _235
REMARK   93  A    between atoms: _235  and  _236
REMARK   94  A    between atoms: _238  and  _240
REMARK   95  A    between atoms: _240  and  _241
REMARK   96  A    between atoms: _240  and  _243
REMARK   97  A    between atoms: _243  and  _244
REMARK   98  A    between atoms: _246  and  _248
REMARK   99  A    between atoms: _248  and  _249
REMARK  100  A    between atoms: _252  and  _254
REMARK  101  A    between atoms: _254  and  _255
REMARK  102  A    between atoms: _254  and  _257
REMARK  103  A    between atoms: _257  and  _258
REMARK  104  A    between atoms: _260  and  _262
REMARK  105  A    between atoms: _262  and  _263
REMARK  106  A    between atoms: _262  and  _265
REMARK  107  A    between atoms: _265  and  _266
REMARK  108  A    between atoms: _268  and  _270
REMARK  109  A    between atoms: _270  and  _271
REMARK  110  A    between atoms: _270  and  _273
REMARK  111  A    between atoms: _273  and  _274
REMARK  112  A    between atoms: _279  and  _281
REMARK  113  A    between atoms: _281  and  _282
REMARK  114  A    between atoms: _281  and  _284
REMARK  115  A    between atoms: _284  and  _285
REMARK  116  A    between atoms: _285  and  _286
REMARK  117  A    between atoms: _289  and  _291
REMARK  118  A    between atoms: _291  and  _292
REMARK  119  A    between atoms: _291  and  _294
REMARK  120  A    between atoms: _294  and  _295
REMARK  121  A    between atoms: _295  and  _296
REMARK  122  A    between atoms: _299  and  _301
REMARK  123  A    between atoms: _301  and  _302
REMARK  124  A    between atoms: _301  and  _304
REMARK  125  A    between atoms: _304  and  _305
REMARK  126  A    between atoms: _305  and  _306
REMARK  127  A    between atoms: _306  and  _307
REMARK  128  A    between atoms: _316  and  _318
REMARK  129  A    between atoms: _318  and  _319
REMARK  130  A    between atoms: _318  and  _321
REMARK  131  A    between atoms: _321  and  _322
REMARK  132  A    between atoms: _327  and  _329
REMARK  133  A    between atoms: _329  and  _330
REMARK  134  A    between atoms: _329  and  _332
REMARK  135  A    between atoms: _332  and  _333
REMARK  136  A    between atoms: _336  and  _338
REMARK  137  A    between atoms: _338  and  _339
REMARK  138  A    between atoms: _341  and  _343
REMARK  139  A    between atoms: _343  and  _344
REMARK  140  A    between atoms: _346  and  _348
REMARK  141  A    between atoms: _348  and  _349
REMARK  142  A    between atoms: _348  and  _351
REMARK  143  A    between atoms: _351  and  _352
REMARK  144  A    between atoms: _355  and  _357
REMARK  145  A    between atoms: _357  and  _358
REMARK  146  A    between atoms: _357  and  _360
REMARK  147  A    between atoms: _360  and  _361
REMARK  148  A    between atoms: _361  and  _362
REMARK  149  A    between atoms: _362  and  _363
REMARK  150  A    between atoms: _363  and  _364
REMARK  151  A    between atoms: _368  and  _370
REMARK  152  A    between atoms: _370  and  _371
REMARK  153  A    between atoms: _370  and  _373
REMARK  154  A    between atoms: _373  and  _374
REMARK  155  A    between atoms: _374  and  _375
REMARK  156  A    between atoms: _375  and  _376
REMARK  157  A    between atoms: _385  and  _387
REMARK  158  A    between atoms: _387  and  _388
REMARK  159  A    between atoms: _387  and  _390
REMARK  160  A    between atoms: _390  and  _391
REMARK  161  A    between atoms: _401  and  _403
REMARK  162  A    between atoms: _403  and  _404
REMARK  163  A    between atoms: _403  and  _406
REMARK  164  A    between atoms: _406  and  _407
REMARK  165  A    between atoms: _412  and  _413
REMARK  166  A    between atoms: _415  and  _417
REMARK  167  A    between atoms: _417  and  _418
REMARK  168  A    between atoms: _417  and  _420
REMARK  169  A    between atoms: _420  and  _421
REMARK  170  A    between atoms: _421  and  _422
REMARK  171  A    between atoms: _425  and  _427
REMARK  172  A    between atoms: _427  and  _428
REMARK  173  A    between atoms: _427  and  _430
REMARK  174  A    between atoms: _433  and  _435
REMARK  175  A    between atoms: _435  and  _436
REMARK  176  A    between atoms: _435  and  _438
REMARK  177  A    between atoms: _438  and  _439
REMARK                            x       y       z     vdW  Elec       q    Type
REMARK                         _______ _______ _______ _____ _____    ______ ____
ROOT
ATOM      1  CA  GLU A   1     -30.701  82.797   9.702  0.00  0.00    +0.134 C 
ENDROOT
BRANCH   1   2
ATOM      2  N   GLU A   1     -30.202  81.834   8.726  0.00  0.00    -0.239 NA
ATOM      3  H   GLU A   1     -29.221  81.921   8.392  0.00  0.00    +0.142 HD
ENDBRANCH   1   2
BRANCH   1   4
ATOM      4  C   GLU A   1     -31.540  83.851   8.989  0.00  0.00    +0.224 C 
ATOM      5  O   GLU A   1     -31.039  84.534   8.077  0.00  0.00    -0.287 OA
ENDBRANCH   1   4
BRANCH   1   6
ATOM      6  CB  GLU A   1     -29.527  83.509  10.388  0.00  0.00    +0.037 C 
BRANCH   6   7
ATOM      7  CG  GLU A   1     -29.927  84.509  11.452  0.00  0.00    +0.116 C 
BRANCH   7   8
ATOM      8  CD  GLU A   1     -28.775  85.407  11.894  0.00  0.00    +0.365 C 
ATOM      9  OE2 GLU A   1     -28.698  85.704  13.109  0.00  0.00    -0.246 OA
ATOM     10  OE1 GLU A   1     -27.963  85.839  11.039  0.00  0.00    -0.246 OA
ENDBRANCH   7   8
ENDBRANCH   6   7
ENDBRANCH   1   6
TORSDOF 5
REMARK  Name = ../refined-set-2016/4cpy/4cpy_pocket.pdb
REMARK  177 active torsions:
REMARK  status: ('A' for Active; 'I' for Inactive)
REMARK    1  A    between atoms: _1  and  _3
REMARK    2  A    between atoms: _3  and  _4
REMARK    3  A    between atoms: _3  and  _6
REMARK    4  A    between atoms: _6  and  _7
REMARK    5  A    between atoms: _7  and  _8
REMARK    6  A    between atoms: _8  and  _9
REMARK    7  A    between atoms: _18  and  _20
REMARK    8  A    between atoms: _20  and  _21
REMARK    9  A    between atoms: _20  and  _23
REMARK   10  A    between atoms: _23  and  _24
REMARK   11  A    between atoms: _24  and  _25
REMARK   12  A    between atoms: _28  and  _30
REMARK   13  A    between atoms: _30  and  _31
REMARK   14  A    between atoms: _30  and  _33
REMARK   15  A    between atoms: _33  and  _34
REMARK   16  A    between atoms: _37  and  _39
REMARK   17  A    between atoms: _39  and  _40
REMARK   18  A    between atoms: _39  and  _42
REMARK   19  A    between atoms: _42  and  _43
REMARK   20  A    between atoms: _48  and  _50
REMARK   21  A    between atoms: _50  and  _51
REMARK   22  A    between atoms: _50  and  _53
REMARK   23  A    between atoms: _53  and  _54
REMARK   24  A    between atoms: _54  and  _55
REMARK   25  A    between atoms: _55  and  _56
REMARK   26  A    between atoms: _65  and  _67
REMARK   27  A    between atoms: _67  and  _68
REMARK   28  A    between atoms: _70  and  _72
REMARK   29  A    between atoms: _72  and  _73
REMARK   30  A    between atoms: _72  and  _75
REMARK   31  A    between atoms: _75  and  _76
REMARK   32  A    between atoms: _79  and  _81
REMARK   33  A    between atoms: _81  and  _82
REMARK   34  A    between atoms: _81  and  _84
REMARK   35  A    between atoms: _84  and  _85
REMARK   36  A    between atoms: _85  and  _86
REMARK   37  A    between atoms: _86  and  _87
REMARK   38  A    between atoms: _96  and  _98
REMARK   39  A    between atoms: _98  and  _99
REMARK   40  A    between atoms: _98  and  _101
REMARK   41  A    between atoms: _101  and  _102
REMARK   42  A    between atoms: _107  and  _109
REMARK   43  A    between atoms: _109  and  _110
REMARK   44  A    between atoms: _109  and  _112
REMARK   45  A    between atoms: _112  and  _113
REMARK   46  A    between atoms: _113  and  _114
REMARK   47  A    between atoms: _114  and  _115
REMARK   48  A    between atoms: _124  and  _126
REMARK   49  A    between atoms: _126  and  _127
REMARK   50  A    between atoms: _126  and  _129
REMARK   51  A    between atoms: _129  and  _130
REMARK   52  A    between atoms: _140  and  _142
REMARK   53  A    between atoms: _142  and  _143
REMARK   54  A    between atoms: _142  and  _145
REMARK   55  A    between atoms: _145  and  _146
REMARK   56  A    between atoms: _148  and  _150
REMARK   57  A    between atoms: _150  and  _151
REMARK   58  A    between atoms: _153  and  _155
REMARK   59  A    between atoms: _155  and  _156
REMARK   60  A    between atoms: _155  and  _158
REMARK   61  A    between atoms: _161  and  _163
REMARK   62  A    between atoms: _163  and  _164
REMARK   63  A    between atoms: _163  and  _166
REMARK   64  A    between atoms: _166  and  _167
REMARK   65  A    between atoms: _170  and  _172
REMARK   66  A    between atoms: _172  and  _173
REMARK   67  A    between atoms: _172  and  _175
REMARK   68  A    between atoms: _175  and  _176
REMARK   69  A    between atoms: _179  and  _181
REMARK   70  A    between atoms: _181  and  _182
REMARK   71  A    between atoms: _181  and  _184
REMARK   72  A    between atoms: _184  and  _185
REMARK   73  A    between atoms: _188  and  _190
REMARK   74  A    between atoms: _190  and  _191
REMARK   75  A    between atoms: _190  and  _193
REMARK   76  A    between atoms: _193  and  _194
REMARK   77  A    between atoms: _194  and  _195
REMARK   78  A    between atoms: _195  and  _196
REMARK   79  A    between atoms: _205  and  _207
REMARK   80  A    between atoms: _207  and  _208
REMARK   81  A    between atoms: _207  and  _210
REMARK   82  A    between atoms: _210  and  _211
REMARK   83  A    between atoms: _214  and  _216
REMARK   84  A    between atoms: _216  and  _217
REMARK   85  A    between atoms: _216  and  _219
REMARK   86  A    between atoms: _219  and  _220
REMARK   87  A    between atoms: _220  and  _221
REMARK   88  A    between atoms: _224  and  _226
REMARK   89  A    between atoms: _226  and  _227
REMARK   90  A    between atoms: _226  and  _229
REMARK   91  A    between atoms: _229  and  _230
REMARK   92  A    between atoms: _233  and  _235
REMARK   93  A    between atoms: _235  and  _236
REMARK   94  A    between atoms: _238  and  _240
REMARK   95  A    between atoms: _240  and  _241
REMARK   96  A    between atoms: _240  and  _243
REMARK   97  A    between atoms: _243  and  _244
REMARK   98  A    between atoms: _246  and  _248
REMARK   99  A    between atoms: _248  and  _249
REMARK  100  A    between atoms: _252  and  _254
REMARK  101  A    between atoms: _254  and  _255
REMARK  102  A    between atoms: _254  and  _257
REMARK  103  A    between atoms: _257  and  _258
REMARK  104  A    between atoms: _260  and  _262
REMARK  105  A    between atoms: _262  and  _263
REMARK  106  A    between atoms: _262  and  _265
REMARK  107  A    between atoms: _265  and  _266
REMARK  108  A    between atoms: _268  and  _270
REMARK  109  A    between atoms: _270  and  _271
REMARK  110  A    between atoms: _270  and  _273
REMARK  111  A    between atoms: _273  and  _274
REMARK  112  A    between atoms: _279  and  _281
REMARK  113  A    between atoms: _281  and  _282
REMARK  114  A    between atoms: _281  and  _284
REMARK  115  A    between atoms: _284  and  _285
REMARK  116  A    between atoms: _285  and  _286
REMARK  117  A    between atoms: _289  and  _291
REMARK  118  A    between atoms: _291  and  _292
REMARK  119  A    between atoms: _291  and  _294
REMARK  120  A    between atoms: _294  and  _295
REMARK  121  A    between atoms: _295  and  _296
REMARK  122  A    between atoms: _299  and  _301
REMARK  123  A    between atoms: _301  and  _302
REMARK  124  A    between atoms: _301  and  _304
REMARK  125  A    between atoms: _304  and  _305
REMARK  126  A    between atoms: _305  and  _306
REMARK  127  A    between atoms: _306  and  _307
REMARK  128  A    between atoms: _316  and  _318
REMARK  129  A    between atoms: _318  and  _319
REMARK  130  A    between atoms: _318  and  _321
REMARK  131  A    between atoms: _321  and  _322
REMARK  132  A    between atoms: _327  and  _329
REMARK  133  A    between atoms: _329  and  _330
REMARK  134  A    between atoms: _329  and  _332
REMARK  135  A    between atoms: _332  and  _333
REMARK  136  A    between atoms: _336  and  _338
REMARK  137  A    between atoms: _338  and  _339
REMARK  138  A    between atoms: _341  and  _343
REMARK  139  A    between atoms: _343  and  _344
REMARK  140  A    between atoms: _346  and  _348
REMARK  141  A    between atoms: _348  and  _349
REMARK  142  A    between atoms: _348  and  _351
REMARK  143  A    between atoms: _351  and  _352
REMARK  144  A    between atoms: _355  and  _357
REMARK  145  A    between atoms: _357  and  _358
REMARK  146  A    between atoms: _357  and  _360
REMARK  147  A    between atoms: _360  and  _361
REMARK  148  A    between atoms: _361  and  _362
REMARK  149  A    between atoms: _362  and  _363
REMARK  150  A    between atoms: _363  and  _364
REMARK  151  A    between atoms: _368  and  _370
REMARK  152  A    between atoms: _370  and  _371
REMARK  153  A    between atoms: _370  and  _373
REMARK  154  A    between atoms: _373  and  _374
REMARK  155  A    between atoms: _374  and  _375
REMARK  156  A    between atoms: _375  and  _376
REMARK  157  A    between atoms: _385  and  _387
REMARK  158  A    between atoms: _387  and  _388
REMARK  159  A    between atoms: _387  and  _390
REMARK  160  A    between atoms: _390  and  _391
REMARK  161  A    between atoms: _401  and  _403
REMARK  162  A    between atoms: _403  and  _404
REMARK  163  A    between atoms: _403  and  _406
REMARK  164  A    between atoms: _406  and  _407
REMARK  165  A    between atoms: _412  and  _413
REMARK  166  A    between atoms: _415  and  _417
REMARK  167  A    between atoms: _417  and  _418
REMARK  168  A    between atoms: _417  and  _420
REMARK  169  A    between atoms: _420  and  _421
REMARK  170  A    between atoms: _421  and  _422
REMARK  171  A    between atoms: _425  and  _427
REMARK  172  A    between atoms: _427  and  _428
REMARK  173  A    between atoms: _427  and  _430
REMARK  174  A    between atoms: _433  and  _435
REMARK  175  A    between atoms: _435  and  _436
REMARK  176  A    between atoms: _435  and  _438
REMARK  177  A    between atoms: _438  and  _439
REMARK                            x       y       z     vdW  Elec       q    Type
REMARK                         _______ _______ _______ _____ _____    ______ ____
ROOT
ATOM      1  CA  VAL A   1     -33.365  88.123  10.910  0.00  0.00    +0.133 C 
ENDROOT
BRANCH   1   2
ATOM      2  CB  VAL A   1     -32.094  88.985  10.974  0.00  0.00    +0.023 C 
ATOM      3  CG2 VAL A   1     -32.310  90.219  11.848  0.00  0.00    +0.002 C 
ATOM      4  CG1 VAL A   1     -30.911  88.148  11.464  0.00  0.00    +0.002 C 
ENDBRANCH   1   2
BRANCH   1   5
ATOM      5  N   VAL A   1     -33.261  87.117   9.864  0.00  0.00    -0.239 NA
ATOM      6  H   VAL A   1     -32.562  87.241   9.104  0.00  0.00    +0.142 HD
ENDBRANCH   1   5
BRANCH   1   7
ATOM      7  C   VAL A   1     -34.592  89.013  10.734  0.00  0.00    +0.224 C 
ATOM      8  O   VAL A   1     -34.918  89.468   9.627  0.00  0.00    -0.287 OA
ENDBRANCH   1   7
TORSDOF 3
REMARK  Name = ../refined-set-2016/4cpy/4cpy_pocket.pdb
REMARK  177 active torsions:
REMARK  status: ('A' for Active; 'I' for Inactive)
REMARK    1  A    between atoms: _1  and  _3
REMARK    2  A    between atoms: _3  and  _4
REMARK    3  A    between atoms: _3  and  _6
REMARK    4  A    between atoms: _6  and  _7
REMARK    5  A    between atoms: _7  and  _8
REMARK    6  A    between atoms: _8  and  _9
REMARK    7  A    between atoms: _18  and  _20
REMARK    8  A    between atoms: _20  and  _21
REMARK    9  A    between atoms: _20  and  _23
REMARK   10  A    between atoms: _23  and  _24
REMARK   11  A    between atoms: _24  and  _25
REMARK   12  A    between atoms: _28  and  _30
REMARK   13  A    between atoms: _30  and  _31
REMARK   14  A    between atoms: _30  and  _33
REMARK   15  A    between atoms: _33  and  _34
REMARK   16  A    between atoms: _37  and  _39
REMARK   17  A    between atoms: _39  and  _40
REMARK   18  A    between atoms: _39  and  _42
REMARK   19  A    between atoms: _42  and  _43
REMARK   20  A    between atoms: _48  and  _50
REMARK   21  A    between atoms: _50  and  _51
REMARK   22  A    between atoms: _50  and  _53
REMARK   23  A    between atoms: _53  and  _54
REMARK   24  A    between atoms: _54  and  _55
REMARK   25  A    between atoms: _55  and  _56
REMARK   26  A    between atoms: _65  and  _67
REMARK   27  A    between atoms: _67  and  _68
REMARK   28  A    between atoms: _70  and  _72
REMARK   29  A    between atoms: _72  and  _73
REMARK   30  A    between atoms: _72  and  _75
REMARK   31  A    between atoms: _75  and  _76
REMARK   32  A    between atoms: _79  and  _81
REMARK   33  A    between atoms: _81  and  _82
REMARK   34  A    between atoms: _81  and  _84
REMARK   35  A    between atoms: _84  and  _85
REMARK   36  A    between atoms: _85  and  _86
REMARK   37  A    between atoms: _86  and  _87
REMARK   38  A    between atoms: _96  and  _98
REMARK   39  A    between atoms: _98  and  _99
REMARK   40  A    between atoms: _98  and  _101
REMARK   41  A    between atoms: _101  and  _102
REMARK   42  A    between atoms: _107  and  _109
REMARK   43  A    between atoms: _109  and  _110
REMARK   44  A    between atoms: _109  and  _112
REMARK   45  A    between atoms: _112  and  _113
REMARK   46  A    between atoms: _113  and  _114
REMARK   47  A    between atoms: _114  and  _115
REMARK   48  A    between atoms: _124  and  _126
REMARK   49  A    between atoms: _126  and  _127
REMARK   50  A    between atoms: _126  and  _129
REMARK   51  A    between atoms: _129  and  _130
REMARK   52  A    between atoms: _140  and  _142
REMARK   53  A    between atoms: _142  and  _143
REMARK   54  A    between atoms: _142  and  _145
REMARK   55  A    between atoms: _145  and  _146
REMARK   56  A    between atoms: _148  and  _150
REMARK   57  A    between atoms: _150  and  _151
REMARK   58  A    between atoms: _153  and  _155
REMARK   59  A    between atoms: _155  and  _156
REMARK   60  A    between atoms: _155  and  _158
REMARK   61  A    between atoms: _161  and  _163
REMARK   62  A    between atoms: _163  and  _164
REMARK   63  A    between atoms: _163  and  _166
REMARK   64  A    between atoms: _166  and  _167
REMARK   65  A    between atoms: _170  and  _172
REMARK   66  A    between atoms: _172  and  _173
REMARK   67  A    between atoms: _172  and  _175
REMARK   68  A    between atoms: _175  and  _176
REMARK   69  A    between atoms: _179  and  _181
REMARK   70  A    between atoms: _181  and  _182
REMARK   71  A    between atoms: _181  and  _184
REMARK   72  A    between atoms: _184  and  _185
REMARK   73  A    between atoms: _188  and  _190
REMARK   74  A    between atoms: _190  and  _191
REMARK   75  A    between atoms: _190  and  _193
REMARK   76  A    between atoms: _193  and  _194
REMARK   77  A    between atoms: _194  and  _195
REMARK   78  A    between atoms: _195  and  _196
REMARK   79  A    between atoms: _205  and  _207
REMARK   80  A    between atoms: _207  and  _208
REMARK   81  A    between atoms: _207  and  _210
REMARK   82  A    between atoms: _210  and  _211
REMARK   83  A    between atoms: _214  and  _216
REMARK   84  A    between atoms: _216  and  _217
REMARK   85  A    between atoms: _216  and  _219
REMARK   86  A    between atoms: _219  and  _220
REMARK   87  A    between atoms: _220  and  _221
REMARK   88  A    between atoms: _224  and  _226
REMARK   89  A    between atoms: _226  and  _227
REMARK   90  A    between atoms: _226  and  _229
REMARK   91  A    between atoms: _229  and  _230
REMARK   92  A    between atoms: _233  and  _235
REMARK   93  A    between atoms: _235  and  _236
REMARK   94  A    between atoms: _238  and  _240
REMARK   95  A    between atoms: _240  and  _241
REMARK   96  A    between atoms: _240  and  _243
REMARK   97  A    between atoms: _243  and  _244
REMARK   98  A    between atoms: _246  and  _248
REMARK   99  A    between atoms: _248  and  _249
REMARK  100  A    between atoms: _252  and  _254
REMARK  101  A    between atoms: _254  and  _255
REMARK  102  A    between atoms: _254  and  _257
REMARK  103  A    between atoms: _257  and  _258
REMARK  104  A    between atoms: _260  and  _262
REMARK  105  A    between atoms: _262  and  _263
REMARK  106  A    between atoms: _262  and  _265
REMARK  107  A    between atoms: _265  and  _266
REMARK  108  A    between atoms: _268  and  _270
REMARK  109  A    between atoms: _270  and  _271
REMARK  110  A    between atoms: _270  and  _273
REMARK  111  A    between atoms: _273  and  _274
REMARK  112  A    between atoms: _279  and  _281
REMARK  113  A    between atoms: _281  and  _282
REMARK  114  A    between atoms: _281  and  _284
REMARK  115  A    between atoms: _284  and  _285
REMARK  116  A    between atoms: _285  and  _286
REMARK  117  A    between atoms: _289  and  _291
REMARK  118  A    between atoms: _291  and  _292
REMARK  119  A    between atoms: _291  and  _294
REMARK  120  A    between atoms: _294  and  _295
REMARK  121  A    between atoms: _295  and  _296
REMARK  122  A    between atoms: _299  and  _301
REMARK  123  A    between atoms: _301  and  _302
REMARK  124  A    between atoms: _301  and  _304
REMARK  125  A    between atoms: _304  and  _305
REMARK  126  A    between atoms: _305  and  _306
REMARK  127  A    between atoms: _306  and  _307
REMARK  128  A    between atoms: _316  and  _318
REMARK  129  A    between atoms: _318  and  _319
REMARK  130  A    between atoms: _318  and  _321
REMARK  131  A    between atoms: _321  and  _322
REMARK  132  A    between atoms: _327  and  _329
REMARK  133  A    between atoms: _329  and  _330
REMARK  134  A    between atoms: _329  and  _332
REMARK  135  A    between atoms: _332  and  _333
REMARK  136  A    between atoms: _336  and  _338
REMARK  137  A    between atoms: _338  and  _339
REMARK  138  A    between atoms: _341  and  _343
REMARK  139  A    between atoms: _343  and  _344
REMARK  140  A    between atoms: _346  and  _348
REMARK  141  A    between atoms: _348  and  _349
REMARK  142  A    between atoms: _348  and  _351
REMARK  143  A    between atoms: _351  and  _352
REMARK  144  A    between atoms: _355  and  _357
REMARK  145  A    between atoms: _357  and  _358
REMARK  146  A    between atoms: _357  and  _360
REMARK  147  A    between atoms: _360  and  _361
REMARK  148  A    between atoms: _361  and  _362
REMARK  149  A    between atoms: _362  and  _363
REMARK  150  A    between atoms: _363  and  _364
REMARK  151  A    between atoms: _368  and  _370
REMARK  152  A    between atoms: _370  and  _371
REMARK  153  A    between atoms: _370  and  _373
REMARK  154  A    between atoms: _373  and  _374
REMARK  155  A    between atoms: _374  and  _375
REMARK  156  A    between atoms: _375  and  _376
REMARK  157  A    between atoms: _385  and  _387
REMARK  158  A    between atoms: _387  and  _388
REMARK  159  A    between atoms: _387  and  _390
REMARK  160  A    between atoms: _390  and  _391
REMARK  161  A    between atoms: _401  and  _403
REMARK  162  A    between atoms: _403  and  _404
REMARK  163  A    between atoms: _403  and  _406
REMARK  164  A    between atoms: _406  and  _407
REMARK  165  A    between atoms: _412  and  _413
REMARK  166  A    between atoms: _415  and  _417
REMARK  167  A    between atoms: _417  and  _418
REMARK  168  A    between atoms: _417  and  _420
REMARK  169  A    between atoms: _420  and  _421
REMARK  170  A    between atoms: _421  and  _422
REMARK  171  A    between atoms: _425  and  _427
REMARK  172  A    between atoms: _427  and  _428
REMARK  173  A    between atoms: _427  and  _430
REMARK  174  A    between atoms: _433  and  _435
REMARK  175  A    between atoms: _435  and  _436
REMARK  176  A    between atoms: _435  and  _438
REMARK  177  A    between atoms: _438  and  _439
REMARK                            x       y       z     vdW  Elec       q    Type
REMARK                         _______ _______ _______ _____ _____    ______ ____
ROOT
ATOM      1  CB  HIS A   1     -32.871  93.176  16.849  0.00  0.00    +0.072 C 
ENDROOT
BRANCH   1   2
ATOM      2  CG  HIS A   1     -32.014  92.954  15.643  0.00  0.00    +0.082 A 
ATOM      3  CD2 HIS A   1     -30.890  92.220  15.462  0.00  0.00    +0.115 A 
ATOM      4  NE2 HIS A   1     -30.488  92.406  14.157  0.00  0.00    -0.221 NA
ATOM      5  CE1 HIS A   1     -31.315  93.249  13.571  0.00  0.00    +0.199 A 
ATOM      6  ND1 HIS A   1     -32.240  93.601  14.448  0.00  0.00    -0.227 NA
ENDBRANCH   1   2
BRANCH   1   7
ATOM      7  CA  HIS A   1     -34.114  92.281  16.925  0.00  0.00    +0.139 C 
BRANCH   7   8
ATOM      8  N   HIS A   1     -34.949  92.753  18.043  0.00  0.00    -0.239 NA
ATOM      9  H   HIS A   1     -34.700  92.456  19.008  0.00  0.00    +0.142 HD
ENDBRANCH   7   8
BRANCH   7  10
ATOM     10  C   HIS A   1     -33.742  90.813  17.186  0.00  0.00    +0.224 C 
ATOM     11  O   HIS A   1     -33.077  90.525  18.173  0.00  0.00    -0.287 OA
ENDBRANCH   7  10
ENDBRANCH   1   7
TORSDOF 4
REMARK  Name = ../refined-set-2016/4cpy/4cpy_pocket.pdb
REMARK  177 active torsions:
REMARK  status: ('A' for Active; 'I' for Inactive)
REMARK    1  A    between atoms: _1  and  _3
REMARK    2  A    between atoms: _3  and  _4
REMARK    3  A    between atoms: _3  and  _6
REMARK    4  A    between atoms: _6  and  _7
REMARK    5  A    between atoms: _7  and  _8
REMARK    6  A    between atoms: _8  and  _9
REMARK    7  A    between atoms: _18  and  _20
REMARK    8  A    between atoms: _20  and  _21
REMARK    9  A    between atoms: _20  and  _23
REMARK   10  A    between atoms: _23  and  _24
REMARK   11  A    between atoms: _24  and  _25
REMARK   12  A    between atoms: _28  and  _30
REMARK   13  A    between atoms: _30  and  _31
REMARK   14  A    between atoms: _30  and  _33
REMARK   15  A    between atoms: _33  and  _34
REMARK   16  A    between atoms: _37  and  _39
REMARK   17  A    between atoms: _39  and  _40
REMARK   18  A    between atoms: _39  and  _42
REMARK   19  A    between atoms: _42  and  _43
REMARK   20  A    between atoms: _48  and  _50
REMARK   21  A    between atoms: _50  and  _51
REMARK   22  A    between atoms: _50  and  _53
REMARK   23  A    between atoms: _53  and  _54
REMARK   24  A    between atoms: _54  and  _55
REMARK   25  A    between atoms: _55  and  _56
REMARK   26  A    between atoms: _65  and  _67
REMARK   27  A    between atoms: _67  and  _68
REMARK   28  A    between atoms: _70  and  _72
REMARK   29  A    between atoms: _72  and  _73
REMARK   30  A    between atoms: _72  and  _75
REMARK   31  A    between atoms: _75  and  _76
REMARK   32  A    between atoms: _79  and  _81
REMARK   33  A    between atoms: _81  and  _82
REMARK   34  A    between atoms: _81  and  _84
REMARK   35  A    between atoms: _84  and  _85
REMARK   36  A    between atoms: _85  and  _86
REMARK   37  A    between atoms: _86  and  _87
REMARK   38  A    between atoms: _96  and  _98
REMARK   39  A    between atoms: _98  and  _99
REMARK   40  A    between atoms: _98  and  _101
REMARK   41  A    between atoms: _101  and  _102
REMARK   42  A    between atoms: _107  and  _109
REMARK   43  A    between atoms: _109  and  _110
REMARK   44  A    between atoms: _109  and  _112
REMARK   45  A    between atoms: _112  and  _113
REMARK   46  A    between atoms: _113  and  _114
REMARK   47  A    between atoms: _114  and  _115
REMARK   48  A    between atoms: _124  and  _126
REMARK   49  A    between atoms: _126  and  _127
REMARK   50  A    between atoms: _126  and  _129
REMARK   51  A    between atoms: _129  and  _130
REMARK   52  A    between atoms: _140  and  _142
REMARK   53  A    between atoms: _142  and  _143
REMARK   54  A    between atoms: _142  and  _145
REMARK   55  A    between atoms: _145  and  _146
REMARK   56  A    between atoms: _148  and  _150
REMARK   57  A    between atoms: _150  and  _151
REMARK   58  A    between atoms: _153  and  _155
REMARK   59  A    between atoms: _155  and  _156
REMARK   60  A    between atoms: _155  and  _158
REMARK   61  A    between atoms: _161  and  _163
REMARK   62  A    between atoms: _163  and  _164
REMARK   63  A    between atoms: _163  and  _166
REMARK   64  A    between atoms: _166  and  _167
REMARK   65  A    between atoms: _170  and  _172
REMARK   66  A    between atoms: _172  and  _173
REMARK   67  A    between atoms: _172  and  _175
REMARK   68  A    between atoms: _175  and  _176
REMARK   69  A    between atoms: _179  and  _181
REMARK   70  A    between atoms: _181  and  _182
REMARK   71  A    between atoms: _181  and  _184
REMARK   72  A    between atoms: _184  and  _185
REMARK   73  A    between atoms: _188  and  _190
REMARK   74  A    between atoms: _190  and  _191
REMARK   75  A    between atoms: _190  and  _193
REMARK   76  A    between atoms: _193  and  _194
REMARK   77  A    between atoms: _194  and  _195
REMARK   78  A    between atoms: _195  and  _196
REMARK   79  A    between atoms: _205  and  _207
REMARK   80  A    between atoms: _207  and  _208
REMARK   81  A    between atoms: _207  and  _210
REMARK   82  A    between atoms: _210  and  _211
REMARK   83  A    between atoms: _214  and  _216
REMARK   84  A    between atoms: _216  and  _217
REMARK   85  A    between atoms: _216  and  _219
REMARK   86  A    between atoms: _219  and  _220
REMARK   87  A    between atoms: _220  and  _221
REMARK   88  A    between atoms: _224  and  _226
REMARK   89  A    between atoms: _226  and  _227
REMARK   90  A    between atoms: _226  and  _229
REMARK   91  A    between atoms: _229  and  _230
REMARK   92  A    between atoms: _233  and  _235
REMARK   93  A    between atoms: _235  and  _236
REMARK   94  A    between atoms: _238  and  _240
REMARK   95  A    between atoms: _240  and  _241
REMARK   96  A    between atoms: _240  and  _243
REMARK   97  A    between atoms: _243  and  _244
REMARK   98  A    between atoms: _246  and  _248
REMARK   99  A    between atoms: _248  and  _249
REMARK  100  A    between atoms: _252  and  _254
REMARK  101  A    between atoms: _254  and  _255
REMARK  102  A    between atoms: _254  and  _257
REMARK  103  A    between atoms: _257  and  _258
REMARK  104  A    between atoms: _260  and  _262
REMARK  105  A    between atoms: _262  and  _263
REMARK  106  A    between atoms: _262  and  _265
REMARK  107  A    between atoms: _265  and  _266
REMARK  108  A    between atoms: _268  and  _270
REMARK  109  A    between atoms: _270  and  _271
REMARK  110  A    between atoms: _270  and  _273
REMARK  111  A    between atoms: _273  and  _274
REMARK  112  A    between atoms: _279  and  _281
REMARK  113  A    between atoms: _281  and  _282
REMARK  114  A    between atoms: _281  and  _284
REMARK  115  A    between atoms: _284  and  _285
REMARK  116  A    between atoms: _285  and  _286
REMARK  117  A    between atoms: _289  and  _291
REMARK  118  A    between atoms: _291  and  _292
REMARK  119  A    between atoms: _291  and  _294
REMARK  120  A    between atoms: _294  and  _295
REMARK  121  A    between atoms: _295  and  _296
REMARK  122  A    between atoms: _299  and  _301
REMARK  123  A    between atoms: _301  and  _302
REMARK  124  A    between atoms: _301  and  _304
REMARK  125  A    between atoms: _304  and  _305
REMARK  126  A    between atoms: _305  and  _306
REMARK  127  A    between atoms: _306  and  _307
REMARK  128  A    between atoms: _316  and  _318
REMARK  129  A    between atoms: _318  and  _319
REMARK  130  A    between atoms: _318  and  _321
REMARK  131  A    between atoms: _321  and  _322
REMARK  132  A    between atoms: _327  and  _329
REMARK  133  A    between atoms: _329  and  _330
REMARK  134  A    between atoms: _329  and  _332
REMARK  135  A    between atoms: _332  and  _333
REMARK  136  A    between atoms: _336  and  _338
REMARK  137  A    between atoms: _338  and  _339
REMARK  138  A    between atoms: _341  and  _343
REMARK  139  A    between atoms: _343  and  _344
REMARK  140  A    between atoms: _346  and  _348
REMARK  141  A    between atoms: _348  and  _349
REMARK  142  A    between atoms: _348  and  _351
REMARK  143  A    between atoms: _351  and  _352
REMARK  144  A    between atoms: _355  and  _357
REMARK  145  A    between atoms: _357  and  _358
REMARK  146  A    between atoms: _357  and  _360
REMARK  147  A    between atoms: _360  and  _361
REMARK  148  A    between atoms: _361  and  _362
REMARK  149  A    between atoms: _362  and  _363
REMARK  150  A    between atoms: _363  and  _364
REMARK  151  A    between atoms: _368  and  _370
REMARK  152  A    between atoms: _370  and  _371
REMARK  153  A    between atoms: _370  and  _373
REMARK  154  A    between atoms: _373  and  _374
REMARK  155  A    between atoms: _374  and  _375
REMARK  156  A    between atoms: _375  and  _376
REMARK  157  A    between atoms: _385  and  _387
REMARK  158  A    between atoms: _387  and  _388
REMARK  159  A    between atoms: _387  and  _390
REMARK  160  A    between atoms: _390  and  _391
REMARK  161  A    between atoms: _401  and  _403
REMARK  162  A    between atoms: _403  and  _404
REMARK  163  A    between atoms: _403  and  _406
REMARK  164  A    between atoms: _406  and  _407
REMARK  165  A    between atoms: _412  and  _413
REMARK  166  A    between atoms: _415  and  _417
REMARK  167  A    between atoms: _417  and  _418
REMARK  168  A    between atoms: _417  and  _420
REMARK  169  A    between atoms: _420  and  _421
REMARK  170  A    between atoms: _421  and  _422
REMARK  171  A    between atoms: _425  and  _427
REMARK  172  A    between atoms: _427  and  _428
REMARK  173  A    between atoms: _427  and  _430
REMARK  174  A    between atoms: _433  and  _435
REMARK  175  A    between atoms: _435  and  _436
REMARK  176  A    between atoms: _435  and  _438
REMARK  177  A    between atoms: _438  and  _439
REMARK                            x       y       z     vdW  Elec       q    Type
REMARK                         _______ _______ _______ _____ _____    ______ ____
ROOT
ATOM      1  O   HOH     1     -23.143  81.307  17.414  0.00  0.00    +0.000 OA
ENDROOT
TORSDOF 0
REMARK  Name = ../refined-set-2016/4cpy/4cpy_pocket.pdb
REMARK  177 active torsions:
REMARK  status: ('A' for Active; 'I' for Inactive)
REMARK    1  A    between atoms: _1  and  _3
REMARK    2  A    between atoms: _3  and  _4
REMARK    3  A    between atoms: _3  and  _6
REMARK    4  A    between atoms: _6  and  _7
REMARK    5  A    between atoms: _7  and  _8
REMARK    6  A    between atoms: _8  and  _9
REMARK    7  A    between atoms: _18  and  _20
REMARK    8  A    between atoms: _20  and  _21
REMARK    9  A    between atoms: _20  and  _23
REMARK   10  A    between atoms: _23  and  _24
REMARK   11  A    between atoms: _24  and  _25
REMARK   12  A    between atoms: _28  and  _30
REMARK   13  A    between atoms: _30  and  _31
REMARK   14  A    between atoms: _30  and  _33
REMARK   15  A    between atoms: _33  and  _34
REMARK   16  A    between atoms: _37  and  _39
REMARK   17  A    between atoms: _39  and  _40
REMARK   18  A    between atoms: _39  and  _42
REMARK   19  A    between atoms: _42  and  _43
REMARK   20  A    between atoms: _48  and  _50
REMARK   21  A    between atoms: _50  and  _51
REMARK   22  A    between atoms: _50  and  _53
REMARK   23  A    between atoms: _53  and  _54
REMARK   24  A    between atoms: _54  and  _55
REMARK   25  A    between atoms: _55  and  _56
REMARK   26  A    between atoms: _65  and  _67
REMARK   27  A    between atoms: _67  and  _68
REMARK   28  A    between atoms: _70  and  _72
REMARK   29  A    between atoms: _72  and  _73
REMARK   30  A    between atoms: _72  and  _75
REMARK   31  A    between atoms: _75  and  _76
REMARK   32  A    between atoms: _79  and  _81
REMARK   33  A    between atoms: _81  and  _82
REMARK   34  A    between atoms: _81  and  _84
REMARK   35  A    between atoms: _84  and  _85
REMARK   36  A    between atoms: _85  and  _86
REMARK   37  A    between atoms: _86  and  _87
REMARK   38  A    between atoms: _96  and  _98
REMARK   39  A    between atoms: _98  and  _99
REMARK   40  A    between atoms: _98  and  _101
REMARK   41  A    between atoms: _101  and  _102
REMARK   42  A    between atoms: _107  and  _109
REMARK   43  A    between atoms: _109  and  _110
REMARK   44  A    between atoms: _109  and  _112
REMARK   45  A    between atoms: _112  and  _113
REMARK   46  A    between atoms: _113  and  _114
REMARK   47  A    between atoms: _114  and  _115
REMARK   48  A    between atoms: _124  and  _126
REMARK   49  A    between atoms: _126  and  _127
REMARK   50  A    between atoms: _126  and  _129
REMARK   51  A    between atoms: _129  and  _130
REMARK   52  A    between atoms: _140  and  _142
REMARK   53  A    between atoms: _142  and  _143
REMARK   54  A    between atoms: _142  and  _145
REMARK   55  A    between atoms: _145  and  _146
REMARK   56  A    between atoms: _148  and  _150
REMARK   57  A    between atoms: _150  and  _151
REMARK   58  A    between atoms: _153  and  _155
REMARK   59  A    between atoms: _155  and  _156
REMARK   60  A    between atoms: _155  and  _158
REMARK   61  A    between atoms: _161  and  _163
REMARK   62  A    between atoms: _163  and  _164
REMARK   63  A    between atoms: _163  and  _166
REMARK   64  A    between atoms: _166  and  _167
REMARK   65  A    between atoms: _170  and  _172
REMARK   66  A    between atoms: _172  and  _173
REMARK   67  A    between atoms: _172  and  _175
REMARK   68  A    between atoms: _175  and  _176
REMARK   69  A    between atoms: _179  and  _181
REMARK   70  A    between atoms: _181  and  _182
REMARK   71  A    between atoms: _181  and  _184
REMARK   72  A    between atoms: _184  and  _185
REMARK   73  A    between atoms: _188  and  _190
REMARK   74  A    between atoms: _190  and  _191
REMARK   75  A    between atoms: _190  and  _193
REMARK   76  A    between atoms: _193  and  _194
REMARK   77  A    between atoms: _194  and  _195
REMARK   78  A    between atoms: _195  and  _196
REMARK   79  A    between atoms: _205  and  _207
REMARK   80  A    between atoms: _207  and  _208
REMARK   81  A    between atoms: _207  and  _210
REMARK   82  A    between atoms: _210  and  _211
REMARK   83  A    between atoms: _214  and  _216
REMARK   84  A    between atoms: _216  and  _217
REMARK   85  A    between atoms: _216  and  _219
REMARK   86  A    between atoms: _219  and  _220
REMARK   87  A    between atoms: _220  and  _221
REMARK   88  A    between atoms: _224  and  _226
REMARK   89  A    between atoms: _226  and  _227
REMARK   90  A    between atoms: _226  and  _229
REMARK   91  A    between atoms: _229  and  _230
REMARK   92  A    between atoms: _233  and  _235
REMARK   93  A    between atoms: _235  and  _236
REMARK   94  A    between atoms: _238  and  _240
REMARK   95  A    between atoms: _240  and  _241
REMARK   96  A    between atoms: _240  and  _243
REMARK   97  A    between atoms: _243  and  _244
REMARK   98  A    between atoms: _246  and  _248
REMARK   99  A    between atoms: _248  and  _249
REMARK  100  A    between atoms: _252  and  _254
REMARK  101  A    between atoms: _254  and  _255
REMARK  102  A    between atoms: _254  and  _257
REMARK  103  A    between atoms: _257  and  _258
REMARK  104  A    between atoms: _260  and  _262
REMARK  105  A    between atoms: _262  and  _263
REMARK  106  A    between atoms: _262  and  _265
REMARK  107  A    between atoms: _265  and  _266
REMARK  108  A    between atoms: _268  and  _270
REMARK  109  A    between atoms: _270  and  _271
REMARK  110  A    between atoms: _270  and  _273
REMARK  111  A    between atoms: _273  and  _274
REMARK  112  A    between atoms: _279  and  _281
REMARK  113  A    between atoms: _281  and  _282
REMARK  114  A    between atoms: _281  and  _284
REMARK  115  A    between atoms: _284  and  _285
REMARK  116  A    between atoms: _285  and  _286
REMARK  117  A    between atoms: _289  and  _291
REMARK  118  A    between atoms: _291  and  _292
REMARK  119  A    between atoms: _291  and  _294
REMARK  120  A    between atoms: _294  and  _295
REMARK  121  A    between atoms: _295  and  _296
REMARK  122  A    between atoms: _299  and  _301
REMARK  123  A    between atoms: _301  and  _302
REMARK  124  A    between atoms: _301  and  _304
REMARK  125  A    between atoms: _304  and  _305
REMARK  126  A    between atoms: _305  and  _306
REMARK  127  A    between atoms: _306  and  _307
REMARK  128  A    between atoms: _316  and  _318
REMARK  129  A    between atoms: _318  and  _319
REMARK  130  A    between atoms: _318  and  _321
REMARK  131  A    between atoms: _321  and  _322
REMARK  132  A    between atoms: _327  and  _329
REMARK  133  A    between atoms: _329  and  _330
REMARK  134  A    between atoms: _329  and  _332
REMARK  135  A    between atoms: _332  and  _333
REMARK  136  A    between atoms: _336  and  _338
REMARK  137  A    between atoms: _338  and  _339
REMARK  138  A    between atoms: _341  and  _343
REMARK  139  A    between atoms: _343  and  _344
REMARK  140  A    between atoms: _346  and  _348
REMARK  141  A    between atoms: _348  and  _349
REMARK  142  A    between atoms: _348  and  _351
REMARK  143  A    between atoms: _351  and  _352
REMARK  144  A    between atoms: _355  and  _357
REMARK  145  A    between atoms: _357  and  _358
REMARK  146  A    between atoms: _357  and  _360
REMARK  147  A    between atoms: _360  and  _361
REMARK  148  A    between atoms: _361  and  _362
REMARK  149  A    between atoms: _362  and  _363
REMARK  150  A    between atoms: _363  and  _364
REMARK  151  A    between atoms: _368  and  _370
REMARK  152  A    between atoms: _370  and  _371
REMARK  153  A    between atoms: _370  and  _373
REMARK  154  A    between atoms: _373  and  _374
REMARK  155  A    between atoms: _374  and  _375
REMARK  156  A    between atoms: _375  and  _376
REMARK  157  A    between atoms: _385  and  _387
REMARK  158  A    between atoms: _387  and  _388
REMARK  159  A    between atoms: _387  and  _390
REMARK  160  A    between atoms: _390  and  _391
REMARK  161  A    between atoms: _401  and  _403
REMARK  162  A    between atoms: _403  and  _404
REMARK  163  A    between atoms: _403  and  _406
REMARK  164  A    between atoms: _406  and  _407
REMARK  165  A    between atoms: _412  and  _413
REMARK  166  A    between atoms: _415  and  _417
REMARK  167  A    between atoms: _417  and  _418
REMARK  168  A    between atoms: _417  and  _420
REMARK  169  A    between atoms: _420  and  _421
REMARK  170  A    between atoms: _421  and  _422
REMARK  171  A    between atoms: _425  and  _427
REMARK  172  A    between atoms: _427  and  _428
REMARK  173  A    between atoms: _427  and  _430
REMARK  174  A    between atoms: _433  and  _435
REMARK  175  A    between atoms: _435  and  _436
REMARK  176  A    between atoms: _435  and  _438
REMARK  177  A    between atoms: _438  and  _439
REMARK                            x       y       z     vdW  Elec       q    Type
REMARK                         _______ _______ _______ _____ _____    ______ ____
ROOT
ATOM      1  O   HOH     1     -25.658  89.815  17.012  0.00  0.00    +0.000 OA
ENDROOT
TORSDOF 0
REMARK  Name = ../refined-set-2016/4cpy/4cpy_pocket.pdb
REMARK  177 active torsions:
REMARK  status: ('A' for Active; 'I' for Inactive)
REMARK    1  A    between atoms: _1  and  _3
REMARK    2  A    between atoms: _3  and  _4
REMARK    3  A    between atoms: _3  and  _6
REMARK    4  A    between atoms: _6  and  _7
REMARK    5  A    between atoms: _7  and  _8
REMARK    6  A    between atoms: _8  and  _9
REMARK    7  A    between atoms: _18  and  _20
REMARK    8  A    between atoms: _20  and  _21
REMARK    9  A    between atoms: _20  and  _23
REMARK   10  A    between atoms: _23  and  _24
REMARK   11  A    between atoms: _24  and  _25
REMARK   12  A    between atoms: _28  and  _30
REMARK   13  A    between atoms: _30  and  _31
REMARK   14  A    between atoms: _30  and  _33
REMARK   15  A    between atoms: _33  and  _34
REMARK   16  A    between atoms: _37  and  _39
REMARK   17  A    between atoms: _39  and  _40
REMARK   18  A    between atoms: _39  and  _42
REMARK   19  A    between atoms: _42  and  _43
REMARK   20  A    between atoms: _48  and  _50
REMARK   21  A    between atoms: _50  and  _51
REMARK   22  A    between atoms: _50  and  _53
REMARK   23  A    between atoms: _53  and  _54
REMARK   24  A    between atoms: _54  and  _55
REMARK   25  A    between atoms: _55  and  _56
REMARK   26  A    between atoms: _65  and  _67
REMARK   27  A    between atoms: _67  and  _68
REMARK   28  A    between atoms: _70  and  _72
REMARK   29  A    between atoms: _72  and  _73
REMARK   30  A    between atoms: _72  and  _75
REMARK   31  A    between atoms: _75  and  _76
REMARK   32  A    between atoms: _79  and  _81
REMARK   33  A    between atoms: _81  and  _82
REMARK   34  A    between atoms: _81  and  _84
REMARK   35  A    between atoms: _84  and  _85
REMARK   36  A    between atoms: _85  and  _86
REMARK   37  A    between atoms: _86  and  _87
REMARK   38  A    between atoms: _96  and  _98
REMARK   39  A    between atoms: _98  and  _99
REMARK   40  A    between atoms: _98  and  _101
REMARK   41  A    between atoms: _101  and  _102
REMARK   42  A    between atoms: _107  and  _109
REMARK   43  A    between atoms: _109  and  _110
REMARK   44  A    between atoms: _109  and  _112
REMARK   45  A    between atoms: _112  and  _113
REMARK   46  A    between atoms: _113  and  _114
REMARK   47  A    between atoms: _114  and  _115
REMARK   48  A    between atoms: _124  and  _126
REMARK   49  A    between atoms: _126  and  _127
REMARK   50  A    between atoms: _126  and  _129
REMARK   51  A    between atoms: _129  and  _130
REMARK   52  A    between atoms: _140  and  _142
REMARK   53  A    between atoms: _142  and  _143
REMARK   54  A    between atoms: _142  and  _145
REMARK   55  A    between atoms: _145  and  _146
REMARK   56  A    between atoms: _148  and  _150
REMARK   57  A    between atoms: _150  and  _151
REMARK   58  A    between atoms: _153  and  _155
REMARK   59  A    between atoms: _155  and  _156
REMARK   60  A    between atoms: _155  and  _158
REMARK   61  A    between atoms: _161  and  _163
REMARK   62  A    between atoms: _163  and  _164
REMARK   63  A    between atoms: _163  and  _166
REMARK   64  A    between atoms: _166  and  _167
REMARK   65  A    between atoms: _170  and  _172
REMARK   66  A    between atoms: _172  and  _173
REMARK   67  A    between atoms: _172  and  _175
REMARK   68  A    between atoms: _175  and  _176
REMARK   69  A    between atoms: _179  and  _181
REMARK   70  A    between atoms: _181  and  _182
REMARK   71  A    between atoms: _181  and  _184
REMARK   72  A    between atoms: _184  and  _185
REMARK   73  A    between atoms: _188  and  _190
REMARK   74  A    between atoms: _190  and  _191
REMARK   75  A    between atoms: _190  and  _193
REMARK   76  A    between atoms: _193  and  _194
REMARK   77  A    between atoms: _194  and  _195
REMARK   78  A    between atoms: _195  and  _196
REMARK   79  A    between atoms: _205  and  _207
REMARK   80  A    between atoms: _207  and  _208
REMARK   81  A    between atoms: _207  and  _210
REMARK   82  A    between atoms: _210  and  _211
REMARK   83  A    between atoms: _214  and  _216
REMARK   84  A    between atoms: _216  and  _217
REMARK   85  A    between atoms: _216  and  _219
REMARK   86  A    between atoms: _219  and  _220
REMARK   87  A    between atoms: _220  and  _221
REMARK   88  A    between atoms: _224  and  _226
REMARK   89  A    between atoms: _226  and  _227
REMARK   90  A    between atoms: _226  and  _229
REMARK   91  A    between atoms: _229  and  _230
REMARK   92  A    between atoms: _233  and  _235
REMARK   93  A    between atoms: _235  and  _236
REMARK   94  A    between atoms: _238  and  _240
REMARK   95  A    between atoms: _240  and  _241
REMARK   96  A    between atoms: _240  and  _243
REMARK   97  A    between atoms: _243  and  _244
REMARK   98  A    between atoms: _246  and  _248
REMARK   99  A    between atoms: _248  and  _249
REMARK  100  A    between atoms: _252  and  _254
REMARK  101  A    between atoms: _254  and  _255
REMARK  102  A    between atoms: _254  and  _257
REMARK  103  A    between atoms: _257  and  _258
REMARK  104  A    between atoms: _260  and  _262
REMARK  105  A    between atoms: _262  and  _263
REMARK  106  A    between atoms: _262  and  _265
REMARK  107  A    between atoms: _265  and  _266
REMARK  108  A    between atoms: _268  and  _270
REMARK  109  A    between atoms: _270  and  _271
REMARK  110  A    between atoms: _270  and  _273
REMARK  111  A    between atoms: _273  and  _274
REMARK  112  A    between atoms: _279  and  _281
REMARK  113  A    between atoms: _281  and  _282
REMARK  114  A    between atoms: _281  and  _284
REMARK  115  A    between atoms: _284  and  _285
REMARK  116  A    between atoms: _285  and  _286
REMARK  117  A    between atoms: _289  and  _291
REMARK  118  A    between atoms: _291  and  _292
REMARK  119  A    between atoms: _291  and  _294
REMARK  120  A    between atoms: _294  and  _295
REMARK  121  A    between atoms: _295  and  _296
REMARK  122  A    between atoms: _299  and  _301
REMARK  123  A    between atoms: _301  and  _302
REMARK  124  A    between atoms: _301  and  _304
REMARK  125  A    between atoms: _304  and  _305
REMARK  126  A    between atoms: _305  and  _306
REMARK  127  A    between atoms: _306  and  _307
REMARK  128  A    between atoms: _316  and  _318
REMARK  129  A    between atoms: _318  and  _319
REMARK  130  A    between atoms: _318  and  _321
REMARK  131  A    between atoms: _321  and  _322
REMARK  132  A    between atoms: _327  and  _329
REMARK  133  A    between atoms: _329  and  _330
REMARK  134  A    between atoms: _329  and  _332
REMARK  135  A    between atoms: _332  and  _333
REMARK  136  A    between atoms: _336  and  _338
REMARK  137  A    between atoms: _338  and  _339
REMARK  138  A    between atoms: _341  and  _343
REMARK  139  A    between atoms: _343  and  _344
REMARK  140  A    between atoms: _346  and  _348
REMARK  141  A    between atoms: _348  and  _349
REMARK  142  A    between atoms: _348  and  _351
REMARK  143  A    between atoms: _351  and  _352
REMARK  144  A    between atoms: _355  and  _357
REMARK  145  A    between atoms: _357  and  _358
REMARK  146  A    between atoms: _357  and  _360
REMARK  147  A    between atoms: _360  and  _361
REMARK  148  A    between atoms: _361  and  _362
REMARK  149  A    between atoms: _362  and  _363
REMARK  150  A    between atoms: _363  and  _364
REMARK  151  A    between atoms: _368  and  _370
REMARK  152  A    between atoms: _370  and  _371
REMARK  153  A    between atoms: _370  and  _373
REMARK  154  A    between atoms: _373  and  _374
REMARK  155  A    between atoms: _374  and  _375
REMARK  156  A    between atoms: _375  and  _376
REMARK  157  A    between atoms: _385  and  _387
REMARK  158  A    between atoms: _387  and  _388
REMARK  159  A    between atoms: _387  and  _390
REMARK  160  A    between atoms: _390  and  _391
REMARK  161  A    between atoms: _401  and  _403
REMARK  162  A    between atoms: _403  and  _404
REMARK  163  A    between atoms: _403  and  _406
REMARK  164  A    between atoms: _406  and  _407
REMARK  165  A    between atoms: _412  and  _413
REMARK  166  A    between atoms: _415  and  _417
REMARK  167  A    between atoms: _417  and  _418
REMARK  168  A    between atoms: _417  and  _420
REMARK  169  A    between atoms: _420  and  _421
REMARK  170  A    between atoms: _421  and  _422
REMARK  171  A    between atoms: _425  and  _427
REMARK  172  A    between atoms: _427  and  _428
REMARK  173  A    between atoms: _427  and  _430
REMARK  174  A    between atoms: _433  and  _435
REMARK  175  A    between atoms: _435  and  _436
REMARK  176  A    between atoms: _435  and  _438
REMARK  177  A    between atoms: _438  and  _439
REMARK                            x       y       z     vdW  Elec       q    Type
REMARK                         _______ _______ _______ _____ _____    ______ ____
ROOT
ATOM      1  O   HOH     1     -28.147  90.769  17.727  0.00  0.00    +0.000 OA
ENDROOT
TORSDOF 0
REMARK  Name = ../refined-set-2016/4cpy/4cpy_pocket.pdb
REMARK  177 active torsions:
REMARK  status: ('A' for Active; 'I' for Inactive)
REMARK    1  A    between atoms: _1  and  _3
REMARK    2  A    between atoms: _3  and  _4
REMARK    3  A    between atoms: _3  and  _6
REMARK    4  A    between atoms: _6  and  _7
REMARK    5  A    between atoms: _7  and  _8
REMARK    6  A    between atoms: _8  and  _9
REMARK    7  A    between atoms: _18  and  _20
REMARK    8  A    between atoms: _20  and  _21
REMARK    9  A    between atoms: _20  and  _23
REMARK   10  A    between atoms: _23  and  _24
REMARK   11  A    between atoms: _24  and  _25
REMARK   12  A    between atoms: _28  and  _30
REMARK   13  A    between atoms: _30  and  _31
REMARK   14  A    between atoms: _30  and  _33
REMARK   15  A    between atoms: _33  and  _34
REMARK   16  A    between atoms: _37  and  _39
REMARK   17  A    between atoms: _39  and  _40
REMARK   18  A    between atoms: _39  and  _42
REMARK   19  A    between atoms: _42  and  _43
REMARK   20  A    between atoms: _48  and  _50
REMARK   21  A    between atoms: _50  and  _51
REMARK   22  A    between atoms: _50  and  _53
REMARK   23  A    between atoms: _53  and  _54
REMARK   24  A    between atoms: _54  and  _55
REMARK   25  A    between atoms: _55  and  _56
REMARK   26  A    between atoms: _65  and  _67
REMARK   27  A    between atoms: _67  and  _68
REMARK   28  A    between atoms: _70  and  _72
REMARK   29  A    between atoms: _72  and  _73
REMARK   30  A    between atoms: _72  and  _75
REMARK   31  A    between atoms: _75  and  _76
REMARK   32  A    between atoms: _79  and  _81
REMARK   33  A    between atoms: _81  and  _82
REMARK   34  A    between atoms: _81  and  _84
REMARK   35  A    between atoms: _84  and  _85
REMARK   36  A    between atoms: _85  and  _86
REMARK   37  A    between atoms: _86  and  _87
REMARK   38  A    between atoms: _96  and  _98
REMARK   39  A    between atoms: _98  and  _99
REMARK   40  A    between atoms: _98  and  _101
REMARK   41  A    between atoms: _101  and  _102
REMARK   42  A    between atoms: _107  and  _109
REMARK   43  A    between atoms: _109  and  _110
REMARK   44  A    between atoms: _109  and  _112
REMARK   45  A    between atoms: _112  and  _113
REMARK   46  A    between atoms: _113  and  _114
REMARK   47  A    between atoms: _114  and  _115
REMARK   48  A    between atoms: _124  and  _126
REMARK   49  A    between atoms: _126  and  _127
REMARK   50  A    between atoms: _126  and  _129
REMARK   51  A    between atoms: _129  and  _130
REMARK   52  A    between atoms: _140  and  _142
REMARK   53  A    between atoms: _142  and  _143
REMARK   54  A    between atoms: _142  and  _145
REMARK   55  A    between atoms: _145  and  _146
REMARK   56  A    between atoms: _148  and  _150
REMARK   57  A    between atoms: _150  and  _151
REMARK   58  A    between atoms: _153  and  _155
REMARK   59  A    between atoms: _155  and  _156
REMARK   60  A    between atoms: _155  and  _158
REMARK   61  A    between atoms: _161  and  _163
REMARK   62  A    between atoms: _163  and  _164
REMARK   63  A    between atoms: _163  and  _166
REMARK   64  A    between atoms: _166  and  _167
REMARK   65  A    between atoms: _170  and  _172
REMARK   66  A    between atoms: _172  and  _173
REMARK   67  A    between atoms: _172  and  _175
REMARK   68  A    between atoms: _175  and  _176
REMARK   69  A    between atoms: _179  and  _181
REMARK   70  A    between atoms: _181  and  _182
REMARK   71  A    between atoms: _181  and  _184
REMARK   72  A    between atoms: _184  and  _185
REMARK   73  A    between atoms: _188  and  _190
REMARK   74  A    between atoms: _190  and  _191
REMARK   75  A    between atoms: _190  and  _193
REMARK   76  A    between atoms: _193  and  _194
REMARK   77  A    between atoms: _194  and  _195
REMARK   78  A    between atoms: _195  and  _196
REMARK   79  A    between atoms: _205  and  _207
REMARK   80  A    between atoms: _207  and  _208
REMARK   81  A    between atoms: _207  and  _210
REMARK   82  A    between atoms: _210  and  _211
REMARK   83  A    between atoms: _214  and  _216
REMARK   84  A    between atoms: _216  and  _217
REMARK   85  A    between atoms: _216  and  _219
REMARK   86  A    between atoms: _219  and  _220
REMARK   87  A    between atoms: _220  and  _221
REMARK   88  A    between atoms: _224  and  _226
REMARK   89  A    between atoms: _226  and  _227
REMARK   90  A    between atoms: _226  and  _229
REMARK   91  A    between atoms: _229  and  _230
REMARK   92  A    between atoms: _233  and  _235
REMARK   93  A    between atoms: _235  and  _236
REMARK   94  A    between atoms: _238  and  _240
REMARK   95  A    between atoms: _240  and  _241
REMARK   96  A    between atoms: _240  and  _243
REMARK   97  A    between atoms: _243  and  _244
REMARK   98  A    between atoms: _246  and  _248
REMARK   99  A    between atoms: _248  and  _249
REMARK  100  A    between atoms: _252  and  _254
REMARK  101  A    between atoms: _254  and  _255
REMARK  102  A    between atoms: _254  and  _257
REMARK  103  A    between atoms: _257  and  _258
REMARK  104  A    between atoms: _260  and  _262
REMARK  105  A    between atoms: _262  and  _263
REMARK  106  A    between atoms: _262  and  _265
REMARK  107  A    between atoms: _265  and  _266
REMARK  108  A    between atoms: _268  and  _270
REMARK  109  A    between atoms: _270  and  _271
REMARK  110  A    between atoms: _270  and  _273
REMARK  111  A    between atoms: _273  and  _274
REMARK  112  A    between atoms: _279  and  _281
REMARK  113  A    between atoms: _281  and  _282
REMARK  114  A    between atoms: _281  and  _284
REMARK  115  A    between atoms: _284  and  _285
REMARK  116  A    between atoms: _285  and  _286
REMARK  117  A    between atoms: _289  and  _291
REMARK  118  A    between atoms: _291  and  _292
REMARK  119  A    between atoms: _291  and  _294
REMARK  120  A    between atoms: _294  and  _295
REMARK  121  A    between atoms: _295  and  _296
REMARK  122  A    between atoms: _299  and  _301
REMARK  123  A    between atoms: _301  and  _302
REMARK  124  A    between atoms: _301  and  _304
REMARK  125  A    between atoms: _304  and  _305
REMARK  126  A    between atoms: _305  and  _306
REMARK  127  A    between atoms: _306  and  _307
REMARK  128  A    between atoms: _316  and  _318
REMARK  129  A    between atoms: _318  and  _319
REMARK  130  A    between atoms: _318  and  _321
REMARK  131  A    between atoms: _321  and  _322
REMARK  132  A    between atoms: _327  and  _329
REMARK  133  A    between atoms: _329  and  _330
REMARK  134  A    between atoms: _329  and  _332
REMARK  135  A    between atoms: _332  and  _333
REMARK  136  A    between atoms: _336  and  _338
REMARK  137  A    between atoms: _338  and  _339
REMARK  138  A    between atoms: _341  and  _343
REMARK  139  A    between atoms: _343  and  _344
REMARK  140  A    between atoms: _346  and  _348
REMARK  141  A    between atoms: _348  and  _349
REMARK  142  A    between atoms: _348  and  _351
REMARK  143  A    between atoms: _351  and  _352
REMARK  144  A    between atoms: _355  and  _357
REMARK  145  A    between atoms: _357  and  _358
REMARK  146  A    between atoms: _357  and  _360
REMARK  147  A    between atoms: _360  and  _361
REMARK  148  A    between atoms: _361  and  _362
REMARK  149  A    between atoms: _362  and  _363
REMARK  150  A    between atoms: _363  and  _364
REMARK  151  A    between atoms: _368  and  _370
REMARK  152  A    between atoms: _370  and  _371
REMARK  153  A    between atoms: _370  and  _373
REMARK  154  A    between atoms: _373  and  _374
REMARK  155  A    between atoms: _374  and  _375
REMARK  156  A    between atoms: _375  and  _376
REMARK  157  A    between atoms: _385  and  _387
REMARK  158  A    between atoms: _387  and  _388
REMARK  159  A    between atoms: _387  and  _390
REMARK  160  A    between atoms: _390  and  _391
REMARK  161  A    between atoms: _401  and  _403
REMARK  162  A    between atoms: _403  and  _404
REMARK  163  A    between atoms: _403  and  _406
REMARK  164  A    between atoms: _406  and  _407
REMARK  165  A    between atoms: _412  and  _413
REMARK  166  A    between atoms: _415  and  _417
REMARK  167  A    between atoms: _417  and  _418
REMARK  168  A    between atoms: _417  and  _420
REMARK  169  A    between atoms: _420  and  _421
REMARK  170  A    between atoms: _421  and  _422
REMARK  171  A    between atoms: _425  and  _427
REMARK  172  A    between atoms: _427  and  _428
REMARK  173  A    between atoms: _427  and  _430
REMARK  174  A    between atoms: _433  and  _435
REMARK  175  A    between atoms: _435  and  _436
REMARK  176  A    between atoms: _435  and  _438
REMARK  177  A    between atoms: _438  and  _439
REMARK                            x       y       z     vdW  Elec       q    Type
REMARK                         _______ _______ _______ _____ _____    ______ ____
ROOT
ATOM      1  O   HOH     1     -21.241  95.383  20.644  0.00  0.00    +0.000 OA
ENDROOT
TORSDOF 0
REMARK  Name = ../refined-set-2016/4cpy/4cpy_pocket.pdb
REMARK  177 active torsions:
REMARK  status: ('A' for Active; 'I' for Inactive)
REMARK    1  A    between atoms: _1  and  _3
REMARK    2  A    between atoms: _3  and  _4
REMARK    3  A    between atoms: _3  and  _6
REMARK    4  A    between atoms: _6  and  _7
REMARK    5  A    between atoms: _7  and  _8
REMARK    6  A    between atoms: _8  and  _9
REMARK    7  A    between atoms: _18  and  _20
REMARK    8  A    between atoms: _20  and  _21
REMARK    9  A    between atoms: _20  and  _23
REMARK   10  A    between atoms: _23  and  _24
REMARK   11  A    between atoms: _24  and  _25
REMARK   12  A    between atoms: _28  and  _30
REMARK   13  A    between atoms: _30  and  _31
REMARK   14  A    between atoms: _30  and  _33
REMARK   15  A    between atoms: _33  and  _34
REMARK   16  A    between atoms: _37  and  _39
REMARK   17  A    between atoms: _39  and  _40
REMARK   18  A    between atoms: _39  and  _42
REMARK   19  A    between atoms: _42  and  _43
REMARK   20  A    between atoms: _48  and  _50
REMARK   21  A    between atoms: _50  and  _51
REMARK   22  A    between atoms: _50  and  _53
REMARK   23  A    between atoms: _53  and  _54
REMARK   24  A    between atoms: _54  and  _55
REMARK   25  A    between atoms: _55  and  _56
REMARK   26  A    between atoms: _65  and  _67
REMARK   27  A    between atoms: _67  and  _68
REMARK   28  A    between atoms: _70  and  _72
REMARK   29  A    between atoms: _72  and  _73
REMARK   30  A    between atoms: _72  and  _75
REMARK   31  A    between atoms: _75  and  _76
REMARK   32  A    between atoms: _79  and  _81
REMARK   33  A    between atoms: _81  and  _82
REMARK   34  A    between atoms: _81  and  _84
REMARK   35  A    between atoms: _84  and  _85
REMARK   36  A    between atoms: _85  and  _86
REMARK   37  A    between atoms: _86  and  _87
REMARK   38  A    between atoms: _96  and  _98
REMARK   39  A    between atoms: _98  and  _99
REMARK   40  A    between atoms: _98  and  _101
REMARK   41  A    between atoms: _101  and  _102
REMARK   42  A    between atoms: _107  and  _109
REMARK   43  A    between atoms: _109  and  _110
REMARK   44  A    between atoms: _109  and  _112
REMARK   45  A    between atoms: _112  and  _113
REMARK   46  A    between atoms: _113  and  _114
REMARK   47  A    between atoms: _114  and  _115
REMARK   48  A    between atoms: _124  and  _126
REMARK   49  A    between atoms: _126  and  _127
REMARK   50  A    between atoms: _126  and  _129
REMARK   51  A    between atoms: _129  and  _130
REMARK   52  A    between atoms: _140  and  _142
REMARK   53  A    between atoms: _142  and  _143
REMARK   54  A    between atoms: _142  and  _145
REMARK   55  A    between atoms: _145  and  _146
REMARK   56  A    between atoms: _148  and  _150
REMARK   57  A    between atoms: _150  and  _151
REMARK   58  A    between atoms: _153  and  _155
REMARK   59  A    between atoms: _155  and  _156
REMARK   60  A    between atoms: _155  and  _158
REMARK   61  A    between atoms: _161  and  _163
REMARK   62  A    between atoms: _163  and  _164
REMARK   63  A    between atoms: _163  and  _166
REMARK   64  A    between atoms: _166  and  _167
REMARK   65  A    between atoms: _170  and  _172
REMARK   66  A    between atoms: _172  and  _173
REMARK   67  A    between atoms: _172  and  _175
REMARK   68  A    between atoms: _175  and  _176
REMARK   69  A    between atoms: _179  and  _181
REMARK   70  A    between atoms: _181  and  _182
REMARK   71  A    between atoms: _181  and  _184
REMARK   72  A    between atoms: _184  and  _185
REMARK   73  A    between atoms: _188  and  _190
REMARK   74  A    between atoms: _190  and  _191
REMARK   75  A    between atoms: _190  and  _193
REMARK   76  A    between atoms: _193  and  _194
REMARK   77  A    between atoms: _194  and  _195
REMARK   78  A    between atoms: _195  and  _196
REMARK   79  A    between atoms: _205  and  _207
REMARK   80  A    between atoms: _207  and  _208
REMARK   81  A    between atoms: _207  and  _210
REMARK   82  A    between atoms: _210  and  _211
REMARK   83  A    between atoms: _214  and  _216
REMARK   84  A    between atoms: _216  and  _217
REMARK   85  A    between atoms: _216  and  _219
REMARK   86  A    between atoms: _219  and  _220
REMARK   87  A    between atoms: _220  and  _221
REMARK   88  A    between atoms: _224  and  _226
REMARK   89  A    between atoms: _226  and  _227
REMARK   90  A    between atoms: _226  and  _229
REMARK   91  A    between atoms: _229  and  _230
REMARK   92  A    between atoms: _233  and  _235
REMARK   93  A    between atoms: _235  and  _236
REMARK   94  A    between atoms: _238  and  _240
REMARK   95  A    between atoms: _240  and  _241
REMARK   96  A    between atoms: _240  and  _243
REMARK   97  A    between atoms: _243  and  _244
REMARK   98  A    between atoms: _246  and  _248
REMARK   99  A    between atoms: _248  and  _249
REMARK  100  A    between atoms: _252  and  _254
REMARK  101  A    between atoms: _254  and  _255
REMARK  102  A    between atoms: _254  and  _257
REMARK  103  A    between atoms: _257  and  _258
REMARK  104  A    between atoms: _260  and  _262
REMARK  105  A    between atoms: _262  and  _263
REMARK  106  A    between atoms: _262  and  _265
REMARK  107  A    between atoms: _265  and  _266
REMARK  108  A    between atoms: _268  and  _270
REMARK  109  A    between atoms: _270  and  _271
REMARK  110  A    between atoms: _270  and  _273
REMARK  111  A    between atoms: _273  and  _274
REMARK  112  A    between atoms: _279  and  _281
REMARK  113  A    between atoms: _281  and  _282
REMARK  114  A    between atoms: _281  and  _284
REMARK  115  A    between atoms: _284  and  _285
REMARK  116  A    between atoms: _285  and  _286
REMARK  117  A    between atoms: _289  and  _291
REMARK  118  A    between atoms: _291  and  _292
REMARK  119  A    between atoms: _291  and  _294
REMARK  120  A    between atoms: _294  and  _295
REMARK  121  A    between atoms: _295  and  _296
REMARK  122  A    between atoms: _299  and  _301
REMARK  123  A    between atoms: _301  and  _302
REMARK  124  A    between atoms: _301  and  _304
REMARK  125  A    between atoms: _304  and  _305
REMARK  126  A    between atoms: _305  and  _306
REMARK  127  A    between atoms: _306  and  _307
REMARK  128  A    between atoms: _316  and  _318
REMARK  129  A    between atoms: _318  and  _319
REMARK  130  A    between atoms: _318  and  _321
REMARK  131  A    between atoms: _321  and  _322
REMARK  132  A    between atoms: _327  and  _329
REMARK  133  A    between atoms: _329  and  _330
REMARK  134  A    between atoms: _329  and  _332
REMARK  135  A    between atoms: _332  and  _333
REMARK  136  A    between atoms: _336  and  _338
REMARK  137  A    between atoms: _338  and  _339
REMARK  138  A    between atoms: _341  and  _343
REMARK  139  A    between atoms: _343  and  _344
REMARK  140  A    between atoms: _346  and  _348
REMARK  141  A    between atoms: _348  and  _349
REMARK  142  A    between atoms: _348  and  _351
REMARK  143  A    between atoms: _351  and  _352
REMARK  144  A    between atoms: _355  and  _357
REMARK  145  A    between atoms: _357  and  _358
REMARK  146  A    between atoms: _357  and  _360
REMARK  147  A    between atoms: _360  and  _361
REMARK  148  A    between atoms: _361  and  _362
REMARK  149  A    between atoms: _362  and  _363
REMARK  150  A    between atoms: _363  and  _364
REMARK  151  A    between atoms: _368  and  _370
REMARK  152  A    between atoms: _370  and  _371
REMARK  153  A    between atoms: _370  and  _373
REMARK  154  A    between atoms: _373  and  _374
REMARK  155  A    between atoms: _374  and  _375
REMARK  156  A    between atoms: _375  and  _376
REMARK  157  A    between atoms: _385  and  _387
REMARK  158  A    between atoms: _387  and  _388
REMARK  159  A    between atoms: _387  and  _390
REMARK  160  A    between atoms: _390  and  _391
REMARK  161  A    between atoms: _401  and  _403
REMARK  162  A    between atoms: _403  and  _404
REMARK  163  A    between atoms: _403  and  _406
REMARK  164  A    between atoms: _406  and  _407
REMARK  165  A    between atoms: _412  and  _413
REMARK  166  A    between atoms: _415  and  _417
REMARK  167  A    between atoms: _417  and  _418
REMARK  168  A    between atoms: _417  and  _420
REMARK  169  A    between atoms: _420  and  _421
REMARK  170  A    between atoms: _421  and  _422
REMARK  171  A    between atoms: _425  and  _427
REMARK  172  A    between atoms: _427  and  _428
REMARK  173  A    between atoms: _427  and  _430
REMARK  174  A    between atoms: _433  and  _435
REMARK  175  A    between atoms: _435  and  _436
REMARK  176  A    between atoms: _435  and  _438
REMARK  177  A    between atoms: _438  and  _439
REMARK                            x       y       z     vdW  Elec       q    Type
REMARK                         _______ _______ _______ _____ _____    ______ ____
ROOT
ATOM      1  O   HOH     1     -22.755  95.891  18.091  0.00  0.00    +0.000 OA
ENDROOT
TORSDOF 0
REMARK  Name = ../refined-set-2016/4cpy/4cpy_pocket.pdb
REMARK  177 active torsions:
REMARK  status: ('A' for Active; 'I' for Inactive)
REMARK    1  A    between atoms: _1  and  _3
REMARK    2  A    between atoms: _3  and  _4
REMARK    3  A    between atoms: _3  and  _6
REMARK    4  A    between atoms: _6  and  _7
REMARK    5  A    between atoms: _7  and  _8
REMARK    6  A    between atoms: _8  and  _9
REMARK    7  A    between atoms: _18  and  _20
REMARK    8  A    between atoms: _20  and  _21
REMARK    9  A    between atoms: _20  and  _23
REMARK   10  A    between atoms: _23  and  _24
REMARK   11  A    between atoms: _24  and  _25
REMARK   12  A    between atoms: _28  and  _30
REMARK   13  A    between atoms: _30  and  _31
REMARK   14  A    between atoms: _30  and  _33
REMARK   15  A    between atoms: _33  and  _34
REMARK   16  A    between atoms: _37  and  _39
REMARK   17  A    between atoms: _39  and  _40
REMARK   18  A    between atoms: _39  and  _42
REMARK   19  A    between atoms: _42  and  _43
REMARK   20  A    between atoms: _48  and  _50
REMARK   21  A    between atoms: _50  and  _51
REMARK   22  A    between atoms: _50  and  _53
REMARK   23  A    between atoms: _53  and  _54
REMARK   24  A    between atoms: _54  and  _55
REMARK   25  A    between atoms: _55  and  _56
REMARK   26  A    between atoms: _65  and  _67
REMARK   27  A    between atoms: _67  and  _68
REMARK   28  A    between atoms: _70  and  _72
REMARK   29  A    between atoms: _72  and  _73
REMARK   30  A    between atoms: _72  and  _75
REMARK   31  A    between atoms: _75  and  _76
REMARK   32  A    between atoms: _79  and  _81
REMARK   33  A    between atoms: _81  and  _82
REMARK   34  A    between atoms: _81  and  _84
REMARK   35  A    between atoms: _84  and  _85
REMARK   36  A    between atoms: _85  and  _86
REMARK   37  A    between atoms: _86  and  _87
REMARK   38  A    between atoms: _96  and  _98
REMARK   39  A    between atoms: _98  and  _99
REMARK   40  A    between atoms: _98  and  _101
REMARK   41  A    between atoms: _101  and  _102
REMARK   42  A    between atoms: _107  and  _109
REMARK   43  A    between atoms: _109  and  _110
REMARK   44  A    between atoms: _109  and  _112
REMARK   45  A    between atoms: _112  and  _113
REMARK   46  A    between atoms: _113  and  _114
REMARK   47  A    between atoms: _114  and  _115
REMARK   48  A    between atoms: _124  and  _126
REMARK   49  A    between atoms: _126  and  _127
REMARK   50  A    between atoms: _126  and  _129
REMARK   51  A    between atoms: _129  and  _130
REMARK   52  A    between atoms: _140  and  _142
REMARK   53  A    between atoms: _142  and  _143
REMARK   54  A    between atoms: _142  and  _145
REMARK   55  A    between atoms: _145  and  _146
REMARK   56  A    between atoms: _148  and  _150
REMARK   57  A    between atoms: _150  and  _151
REMARK   58  A    between atoms: _153  and  _155
REMARK   59  A    between atoms: _155  and  _156
REMARK   60  A    between atoms: _155  and  _158
REMARK   61  A    between atoms: _161  and  _163
REMARK   62  A    between atoms: _163  and  _164
REMARK   63  A    between atoms: _163  and  _166
REMARK   64  A    between atoms: _166  and  _167
REMARK   65  A    between atoms: _170  and  _172
REMARK   66  A    between atoms: _172  and  _173
REMARK   67  A    between atoms: _172  and  _175
REMARK   68  A    between atoms: _175  and  _176
REMARK   69  A    between atoms: _179  and  _181
REMARK   70  A    between atoms: _181  and  _182
REMARK   71  A    between atoms: _181  and  _184
REMARK   72  A    between atoms: _184  and  _185
REMARK   73  A    between atoms: _188  and  _190
REMARK   74  A    between atoms: _190  and  _191
REMARK   75  A    between atoms: _190  and  _193
REMARK   76  A    between atoms: _193  and  _194
REMARK   77  A    between atoms: _194  and  _195
REMARK   78  A    between atoms: _195  and  _196
REMARK   79  A    between atoms: _205  and  _207
REMARK   80  A    between atoms: _207  and  _208
REMARK   81  A    between atoms: _207  and  _210
REMARK   82  A    between atoms: _210  and  _211
REMARK   83  A    between atoms: _214  and  _216
REMARK   84  A    between atoms: _216  and  _217
REMARK   85  A    between atoms: _216  and  _219
REMARK   86  A    between atoms: _219  and  _220
REMARK   87  A    between atoms: _220  and  _221
REMARK   88  A    between atoms: _224  and  _226
REMARK   89  A    between atoms: _226  and  _227
REMARK   90  A    between atoms: _226  and  _229
REMARK   91  A    between atoms: _229  and  _230
REMARK   92  A    between atoms: _233  and  _235
REMARK   93  A    between atoms: _235  and  _236
REMARK   94  A    between atoms: _238  and  _240
REMARK   95  A    between atoms: _240  and  _241
REMARK   96  A    between atoms: _240  and  _243
REMARK   97  A    between atoms: _243  and  _244
REMARK   98  A    between atoms: _246  and  _248
REMARK   99  A    between atoms: _248  and  _249
REMARK  100  A    between atoms: _252  and  _254
REMARK  101  A    between atoms: _254  and  _255
REMARK  102  A    between atoms: _254  and  _257
REMARK  103  A    between atoms: _257  and  _258
REMARK  104  A    between atoms: _260  and  _262
REMARK  105  A    between atoms: _262  and  _263
REMARK  106  A    between atoms: _262  and  _265
REMARK  107  A    between atoms: _265  and  _266
REMARK  108  A    between atoms: _268  and  _270
REMARK  109  A    between atoms: _270  and  _271
REMARK  110  A    between atoms: _270  and  _273
REMARK  111  A    between atoms: _273  and  _274
REMARK  112  A    between atoms: _279  and  _281
REMARK  113  A    between atoms: _281  and  _282
REMARK  114  A    between atoms: _281  and  _284
REMARK  115  A    between atoms: _284  and  _285
REMARK  116  A    between atoms: _285  and  _286
REMARK  117  A    between atoms: _289  and  _291
REMARK  118  A    between atoms: _291  and  _292
REMARK  119  A    between atoms: _291  and  _294
REMARK  120  A    between atoms: _294  and  _295
REMARK  121  A    between atoms: _295  and  _296
REMARK  122  A    between atoms: _299  and  _301
REMARK  123  A    between atoms: _301  and  _302
REMARK  124  A    between atoms: _301  and  _304
REMARK  125  A    between atoms: _304  and  _305
REMARK  126  A    between atoms: _305  and  _306
REMARK  127  A    between atoms: _306  and  _307
REMARK  128  A    between atoms: _316  and  _318
REMARK  129  A    between atoms: _318  and  _319
REMARK  130  A    between atoms: _318  and  _321
REMARK  131  A    between atoms: _321  and  _322
REMARK  132  A    between atoms: _327  and  _329
REMARK  133  A    between atoms: _329  and  _330
REMARK  134  A    between atoms: _329  and  _332
REMARK  135  A    between atoms: _332  and  _333
REMARK  136  A    between atoms: _336  and  _338
REMARK  137  A    between atoms: _338  and  _339
REMARK  138  A    between atoms: _341  and  _343
REMARK  139  A    between atoms: _343  and  _344
REMARK  140  A    between atoms: _346  and  _348
REMARK  141  A    between atoms: _348  and  _349
REMARK  142  A    between atoms: _348  and  _351
REMARK  143  A    between atoms: _351  and  _352
REMARK  144  A    between atoms: _355  and  _357
REMARK  145  A    between atoms: _357  and  _358
REMARK  146  A    between atoms: _357  and  _360
REMARK  147  A    between atoms: _360  and  _361
REMARK  148  A    between atoms: _361  and  _362
REMARK  149  A    between atoms: _362  and  _363
REMARK  150  A    between atoms: _363  and  _364
REMARK  151  A    between atoms: _368  and  _370
REMARK  152  A    between atoms: _370  and  _371
REMARK  153  A    between atoms: _370  and  _373
REMARK  154  A    between atoms: _373  and  _374
REMARK  155  A    between atoms: _374  and  _375
REMARK  156  A    between atoms: _375  and  _376
REMARK  157  A    between atoms: _385  and  _387
REMARK  158  A    between atoms: _387  and  _388
REMARK  159  A    between atoms: _387  and  _390
REMARK  160  A    between atoms: _390  and  _391
REMARK  161  A    between atoms: _401  and  _403
REMARK  162  A    between atoms: _403  and  _404
REMARK  163  A    between atoms: _403  and  _406
REMARK  164  A    between atoms: _406  and  _407
REMARK  165  A    between atoms: _412  and  _413
REMARK  166  A    between atoms: _415  and  _417
REMARK  167  A    between atoms: _417  and  _418
REMARK  168  A    between atoms: _417  and  _420
REMARK  169  A    between atoms: _420  and  _421
REMARK  170  A    between atoms: _421  and  _422
REMARK  171  A    between atoms: _425  and  _427
REMARK  172  A    between atoms: _427  and  _428
REMARK  173  A    between atoms: _427  and  _430
REMARK  174  A    between atoms: _433  and  _435
REMARK  175  A    between atoms: _435  and  _436
REMARK  176  A    between atoms: _435  and  _438
REMARK  177  A    between atoms: _438  and  _439
REMARK                            x       y       z     vdW  Elec       q    Type
REMARK                         _______ _______ _______ _____ _____    ______ ____
ROOT
ATOM      1  O   HOH     1     -21.774  89.065  18.836  0.00  0.00    +0.000 OA
ENDROOT
TORSDOF 0
REMARK  Name = ../refined-set-2016/4cpy/4cpy_pocket.pdb
REMARK  177 active torsions:
REMARK  status: ('A' for Active; 'I' for Inactive)
REMARK    1  A    between atoms: _1  and  _3
REMARK    2  A    between atoms: _3  and  _4
REMARK    3  A    between atoms: _3  and  _6
REMARK    4  A    between atoms: _6  and  _7
REMARK    5  A    between atoms: _7  and  _8
REMARK    6  A    between atoms: _8  and  _9
REMARK    7  A    between atoms: _18  and  _20
REMARK    8  A    between atoms: _20  and  _21
REMARK    9  A    between atoms: _20  and  _23
REMARK   10  A    between atoms: _23  and  _24
REMARK   11  A    between atoms: _24  and  _25
REMARK   12  A    between atoms: _28  and  _30
REMARK   13  A    between atoms: _30  and  _31
REMARK   14  A    between atoms: _30  and  _33
REMARK   15  A    between atoms: _33  and  _34
REMARK   16  A    between atoms: _37  and  _39
REMARK   17  A    between atoms: _39  and  _40
REMARK   18  A    between atoms: _39  and  _42
REMARK   19  A    between atoms: _42  and  _43
REMARK   20  A    between atoms: _48  and  _50
REMARK   21  A    between atoms: _50  and  _51
REMARK   22  A    between atoms: _50  and  _53
REMARK   23  A    between atoms: _53  and  _54
REMARK   24  A    between atoms: _54  and  _55
REMARK   25  A    between atoms: _55  and  _56
REMARK   26  A    between atoms: _65  and  _67
REMARK   27  A    between atoms: _67  and  _68
REMARK   28  A    between atoms: _70  and  _72
REMARK   29  A    between atoms: _72  and  _73
REMARK   30  A    between atoms: _72  and  _75
REMARK   31  A    between atoms: _75  and  _76
REMARK   32  A    between atoms: _79  and  _81
REMARK   33  A    between atoms: _81  and  _82
REMARK   34  A    between atoms: _81  and  _84
REMARK   35  A    between atoms: _84  and  _85
REMARK   36  A    between atoms: _85  and  _86
REMARK   37  A    between atoms: _86  and  _87
REMARK   38  A    between atoms: _96  and  _98
REMARK   39  A    between atoms: _98  and  _99
REMARK   40  A    between atoms: _98  and  _101
REMARK   41  A    between atoms: _101  and  _102
REMARK   42  A    between atoms: _107  and  _109
REMARK   43  A    between atoms: _109  and  _110
REMARK   44  A    between atoms: _109  and  _112
REMARK   45  A    between atoms: _112  and  _113
REMARK   46  A    between atoms: _113  and  _114
REMARK   47  A    between atoms: _114  and  _115
REMARK   48  A    between atoms: _124  and  _126
REMARK   49  A    between atoms: _126  and  _127
REMARK   50  A    between atoms: _126  and  _129
REMARK   51  A    between atoms: _129  and  _130
REMARK   52  A    between atoms: _140  and  _142
REMARK   53  A    between atoms: _142  and  _143
REMARK   54  A    between atoms: _142  and  _145
REMARK   55  A    between atoms: _145  and  _146
REMARK   56  A    between atoms: _148  and  _150
REMARK   57  A    between atoms: _150  and  _151
REMARK   58  A    between atoms: _153  and  _155
REMARK   59  A    between atoms: _155  and  _156
REMARK   60  A    between atoms: _155  and  _158
REMARK   61  A    between atoms: _161  and  _163
REMARK   62  A    between atoms: _163  and  _164
REMARK   63  A    between atoms: _163  and  _166
REMARK   64  A    between atoms: _166  and  _167
REMARK   65  A    between atoms: _170  and  _172
REMARK   66  A    between atoms: _172  and  _173
REMARK   67  A    between atoms: _172  and  _175
REMARK   68  A    between atoms: _175  and  _176
REMARK   69  A    between atoms: _179  and  _181
REMARK   70  A    between atoms: _181  and  _182
REMARK   71  A    between atoms: _181  and  _184
REMARK   72  A    between atoms: _184  and  _185
REMARK   73  A    between atoms: _188  and  _190
REMARK   74  A    between atoms: _190  and  _191
REMARK   75  A    between atoms: _190  and  _193
REMARK   76  A    between atoms: _193  and  _194
REMARK   77  A    between atoms: _194  and  _195
REMARK   78  A    between atoms: _195  and  _196
REMARK   79  A    between atoms: _205  and  _207
REMARK   80  A    between atoms: _207  and  _208
REMARK   81  A    between atoms: _207  and  _210
REMARK   82  A    between atoms: _210  and  _211
REMARK   83  A    between atoms: _214  and  _216
REMARK   84  A    between atoms: _216  and  _217
REMARK   85  A    between atoms: _216  and  _219
REMARK   86  A    between atoms: _219  and  _220
REMARK   87  A    between atoms: _220  and  _221
REMARK   88  A    between atoms: _224  and  _226
REMARK   89  A    between atoms: _226  and  _227
REMARK   90  A    between atoms: _226  and  _229
REMARK   91  A    between atoms: _229  and  _230
REMARK   92  A    between atoms: _233  and  _235
REMARK   93  A    between atoms: _235  and  _236
REMARK   94  A    between atoms: _238  and  _240
REMARK   95  A    between atoms: _240  and  _241
REMARK   96  A    between atoms: _240  and  _243
REMARK   97  A    between atoms: _243  and  _244
REMARK   98  A    between atoms: _246  and  _248
REMARK   99  A    between atoms: _248  and  _249
REMARK  100  A    between atoms: _252  and  _254
REMARK  101  A    between atoms: _254  and  _255
REMARK  102  A    between atoms: _254  and  _257
REMARK  103  A    between atoms: _257  and  _258
REMARK  104  A    between atoms: _260  and  _262
REMARK  105  A    between atoms: _262  and  _263
REMARK  106  A    between atoms: _262  and  _265
REMARK  107  A    between atoms: _265  and  _266
REMARK  108  A    between atoms: _268  and  _270
REMARK  109  A    between atoms: _270  and  _271
REMARK  110  A    between atoms: _270  and  _273
REMARK  111  A    between atoms: _273  and  _274
REMARK  112  A    between atoms: _279  and  _281
REMARK  113  A    between atoms: _281  and  _282
REMARK  114  A    between atoms: _281  and  _284
REMARK  115  A    between atoms: _284  and  _285
REMARK  116  A    between atoms: _285  and  _286
REMARK  117  A    between atoms: _289  and  _291
REMARK  118  A    between atoms: _291  and  _292
REMARK  119  A    between atoms: _291  and  _294
REMARK  120  A    between atoms: _294  and  _295
REMARK  121  A    between atoms: _295  and  _296
REMARK  122  A    between atoms: _299  and  _301
REMARK  123  A    between atoms: _301  and  _302
REMARK  124  A    between atoms: _301  and  _304
REMARK  125  A    between atoms: _304  and  _305
REMARK  126  A    between atoms: _305  and  _306
REMARK  127  A    between atoms: _306  and  _307
REMARK  128  A    between atoms: _316  and  _318
REMARK  129  A    between atoms: _318  and  _319
REMARK  130  A    between atoms: _318  and  _321
REMARK  131  A    between atoms: _321  and  _322
REMARK  132  A    between atoms: _327  and  _329
REMARK  133  A    between atoms: _329  and  _330
REMARK  134  A    between atoms: _329  and  _332
REMARK  135  A    between atoms: _332  and  _333
REMARK  136  A    between atoms: _336  and  _338
REMARK  137  A    between atoms: _338  and  _339
REMARK  138  A    between atoms: _341  and  _343
REMARK  139  A    between atoms: _343  and  _344
REMARK  140  A    between atoms: _346  and  _348
REMARK  141  A    between atoms: _348  and  _349
REMARK  142  A    between atoms: _348  and  _351
REMARK  143  A    between atoms: _351  and  _352
REMARK  144  A    between atoms: _355  and  _357
REMARK  145  A    between atoms: _357  and  _358
REMARK  146  A    between atoms: _357  and  _360
REMARK  147  A    between atoms: _360  and  _361
REMARK  148  A    between atoms: _361  and  _362
REMARK  149  A    between atoms: _362  and  _363
REMARK  150  A    between atoms: _363  and  _364
REMARK  151  A    between atoms: _368  and  _370
REMARK  152  A    between atoms: _370  and  _371
REMARK  153  A    between atoms: _370  and  _373
REMARK  154  A    between atoms: _373  and  _374
REMARK  155  A    between atoms: _374  and  _375
REMARK  156  A    between atoms: _375  and  _376
REMARK  157  A    between atoms: _385  and  _387
REMARK  158  A    between atoms: _387  and  _388
REMARK  159  A    between atoms: _387  and  _390
REMARK  160  A    between atoms: _390  and  _391
REMARK  161  A    between atoms: _401  and  _403
REMARK  162  A    between atoms: _403  and  _404
REMARK  163  A    between atoms: _403  and  _406
REMARK  164  A    between atoms: _406  and  _407
REMARK  165  A    between atoms: _412  and  _413
REMARK  166  A    between atoms: _415  and  _417
REMARK  167  A    between atoms: _417  and  _418
REMARK  168  A    between atoms: _417  and  _420
REMARK  169  A    between atoms: _420  and  _421
REMARK  170  A    between atoms: _421  and  _422
REMARK  171  A    between atoms: _425  and  _427
REMARK  172  A    between atoms: _427  and  _428
REMARK  173  A    between atoms: _427  and  _430
REMARK  174  A    between atoms: _433  and  _435
REMARK  175  A    between atoms: _435  and  _436
REMARK  176  A    between atoms: _435  and  _438
REMARK  177  A    between atoms: _438  and  _439
REMARK                            x       y       z     vdW  Elec       q    Type
REMARK                         _______ _______ _______ _____ _____    ______ ____
ROOT
ATOM      1  O   HOH     1     -22.456  94.245  12.982  0.00  0.00    +0.000 OA
ENDROOT
TORSDOF 0
REMARK  Name = ../refined-set-2016/4cpy/4cpy_pocket.pdb
REMARK  177 active torsions:
REMARK  status: ('A' for Active; 'I' for Inactive)
REMARK    1  A    between atoms: _1  and  _3
REMARK    2  A    between atoms: _3  and  _4
REMARK    3  A    between atoms: _3  and  _6
REMARK    4  A    between atoms: _6  and  _7
REMARK    5  A    between atoms: _7  and  _8
REMARK    6  A    between atoms: _8  and  _9
REMARK    7  A    between atoms: _18  and  _20
REMARK    8  A    between atoms: _20  and  _21
REMARK    9  A    between atoms: _20  and  _23
REMARK   10  A    between atoms: _23  and  _24
REMARK   11  A    between atoms: _24  and  _25
REMARK   12  A    between atoms: _28  and  _30
REMARK   13  A    between atoms: _30  and  _31
REMARK   14  A    between atoms: _30  and  _33
REMARK   15  A    between atoms: _33  and  _34
REMARK   16  A    between atoms: _37  and  _39
REMARK   17  A    between atoms: _39  and  _40
REMARK   18  A    between atoms: _39  and  _42
REMARK   19  A    between atoms: _42  and  _43
REMARK   20  A    between atoms: _48  and  _50
REMARK   21  A    between atoms: _50  and  _51
REMARK   22  A    between atoms: _50  and  _53
REMARK   23  A    between atoms: _53  and  _54
REMARK   24  A    between atoms: _54  and  _55
REMARK   25  A    between atoms: _55  and  _56
REMARK   26  A    between atoms: _65  and  _67
REMARK   27  A    between atoms: _67  and  _68
REMARK   28  A    between atoms: _70  and  _72
REMARK   29  A    between atoms: _72  and  _73
REMARK   30  A    between atoms: _72  and  _75
REMARK   31  A    between atoms: _75  and  _76
REMARK   32  A    between atoms: _79  and  _81
REMARK   33  A    between atoms: _81  and  _82
REMARK   34  A    between atoms: _81  and  _84
REMARK   35  A    between atoms: _84  and  _85
REMARK   36  A    between atoms: _85  and  _86
REMARK   37  A    between atoms: _86  and  _87
REMARK   38  A    between atoms: _96  and  _98
REMARK   39  A    between atoms: _98  and  _99
REMARK   40  A    between atoms: _98  and  _101
REMARK   41  A    between atoms: _101  and  _102
REMARK   42  A    between atoms: _107  and  _109
REMARK   43  A    between atoms: _109  and  _110
REMARK   44  A    between atoms: _109  and  _112
REMARK   45  A    between atoms: _112  and  _113
REMARK   46  A    between atoms: _113  and  _114
REMARK   47  A    between atoms: _114  and  _115
REMARK   48  A    between atoms: _124  and  _126
REMARK   49  A    between atoms: _126  and  _127
REMARK   50  A    between atoms: _126  and  _129
REMARK   51  A    between atoms: _129  and  _130
REMARK   52  A    between atoms: _140  and  _142
REMARK   53  A    between atoms: _142  and  _143
REMARK   54  A    between atoms: _142  and  _145
REMARK   55  A    between atoms: _145  and  _146
REMARK   56  A    between atoms: _148  and  _150
REMARK   57  A    between atoms: _150  and  _151
REMARK   58  A    between atoms: _153  and  _155
REMARK   59  A    between atoms: _155  and  _156
REMARK   60  A    between atoms: _155  and  _158
REMARK   61  A    between atoms: _161  and  _163
REMARK   62  A    between atoms: _163  and  _164
REMARK   63  A    between atoms: _163  and  _166
REMARK   64  A    between atoms: _166  and  _167
REMARK   65  A    between atoms: _170  and  _172
REMARK   66  A    between atoms: _172  and  _173
REMARK   67  A    between atoms: _172  and  _175
REMARK   68  A    between atoms: _175  and  _176
REMARK   69  A    between atoms: _179  and  _181
REMARK   70  A    between atoms: _181  and  _182
REMARK   71  A    between atoms: _181  and  _184
REMARK   72  A    between atoms: _184  and  _185
REMARK   73  A    between atoms: _188  and  _190
REMARK   74  A    between atoms: _190  and  _191
REMARK   75  A    between atoms: _190  and  _193
REMARK   76  A    between atoms: _193  and  _194
REMARK   77  A    between atoms: _194  and  _195
REMARK   78  A    between atoms: _195  and  _196
REMARK   79  A    between atoms: _205  and  _207
REMARK   80  A    between atoms: _207  and  _208
REMARK   81  A    between atoms: _207  and  _210
REMARK   82  A    between atoms: _210  and  _211
REMARK   83  A    between atoms: _214  and  _216
REMARK   84  A    between atoms: _216  and  _217
REMARK   85  A    between atoms: _216  and  _219
REMARK   86  A    between atoms: _219  and  _220
REMARK   87  A    between atoms: _220  and  _221
REMARK   88  A    between atoms: _224  and  _226
REMARK   89  A    between atoms: _226  and  _227
REMARK   90  A    between atoms: _226  and  _229
REMARK   91  A    between atoms: _229  and  _230
REMARK   92  A    between atoms: _233  and  _235
REMARK   93  A    between atoms: _235  and  _236
REMARK   94  A    between atoms: _238  and  _240
REMARK   95  A    between atoms: _240  and  _241
REMARK   96  A    between atoms: _240  and  _243
REMARK   97  A    between atoms: _243  and  _244
REMARK   98  A    between atoms: _246  and  _248
REMARK   99  A    between atoms: _248  and  _249
REMARK  100  A    between atoms: _252  and  _254
REMARK  101  A    between atoms: _254  and  _255
REMARK  102  A    between atoms: _254  and  _257
REMARK  103  A    between atoms: _257  and  _258
REMARK  104  A    between atoms: _260  and  _262
REMARK  105  A    between atoms: _262  and  _263
REMARK  106  A    between atoms: _262  and  _265
REMARK  107  A    between atoms: _265  and  _266
REMARK  108  A    between atoms: _268  and  _270
REMARK  109  A    between atoms: _270  and  _271
REMARK  110  A    between atoms: _270  and  _273
REMARK  111  A    between atoms: _273  and  _274
REMARK  112  A    between atoms: _279  and  _281
REMARK  113  A    between atoms: _281  and  _282
REMARK  114  A    between atoms: _281  and  _284
REMARK  115  A    between atoms: _284  and  _285
REMARK  116  A    between atoms: _285  and  _286
REMARK  117  A    between atoms: _289  and  _291
REMARK  118  A    between atoms: _291  and  _292
REMARK  119  A    between atoms: _291  and  _294
REMARK  120  A    between atoms: _294  and  _295
REMARK  121  A    between atoms: _295  and  _296
REMARK  122  A    between atoms: _299  and  _301
REMARK  123  A    between atoms: _301  and  _302
REMARK  124  A    between atoms: _301  and  _304
REMARK  125  A    between atoms: _304  and  _305
REMARK  126  A    between atoms: _305  and  _306
REMARK  127  A    between atoms: _306  and  _307
REMARK  128  A    between atoms: _316  and  _318
REMARK  129  A    between atoms: _318  and  _319
REMARK  130  A    between atoms: _318  and  _321
REMARK  131  A    between atoms: _321  and  _322
REMARK  132  A    between atoms: _327  and  _329
REMARK  133  A    between atoms: _329  and  _330
REMARK  134  A    between atoms: _329  and  _332
REMARK  135  A    between atoms: _332  and  _333
REMARK  136  A    between atoms: _336  and  _338
REMARK  137  A    between atoms: _338  and  _339
REMARK  138  A    between atoms: _341  and  _343
REMARK  139  A    between atoms: _343  and  _344
REMARK  140  A    between atoms: _346  and  _348
REMARK  141  A    between atoms: _348  and  _349
REMARK  142  A    between atoms: _348  and  _351
REMARK  143  A    between atoms: _351  and  _352
REMARK  144  A    between atoms: _355  and  _357
REMARK  145  A    between atoms: _357  and  _358
REMARK  146  A    between atoms: _357  and  _360
REMARK  147  A    between atoms: _360  and  _361
REMARK  148  A    between atoms: _361  and  _362
REMARK  149  A    between atoms: _362  and  _363
REMARK  150  A    between atoms: _363  and  _364
REMARK  151  A    between atoms: _368  and  _370
REMARK  152  A    between atoms: _370  and  _371
REMARK  153  A    between atoms: _370  and  _373
REMARK  154  A    between atoms: _373  and  _374
REMARK  155  A    between atoms: _374  and  _375
REMARK  156  A    between atoms: _375  and  _376
REMARK  157  A    between atoms: _385  and  _387
REMARK  158  A    between atoms: _387  and  _388
REMARK  159  A    between atoms: _387  and  _390
REMARK  160  A    between atoms: _390  and  _391
REMARK  161  A    between atoms: _401  and  _403
REMARK  162  A    between atoms: _403  and  _404
REMARK  163  A    between atoms: _403  and  _406
REMARK  164  A    between atoms: _406  and  _407
REMARK  165  A    between atoms: _412  and  _413
REMARK  166  A    between atoms: _415  and  _417
REMARK  167  A    between atoms: _417  and  _418
REMARK  168  A    between atoms: _417  and  _420
REMARK  169  A    between atoms: _420  and  _421
REMARK  170  A    between atoms: _421  and  _422
REMARK  171  A    between atoms: _425  and  _427
REMARK  172  A    between atoms: _427  and  _428
REMARK  173  A    between atoms: _427  and  _430
REMARK  174  A    between atoms: _433  and  _435
REMARK  175  A    between atoms: _435  and  _436
REMARK  176  A    between atoms: _435  and  _438
REMARK  177  A    between atoms: _438  and  _439
REMARK                            x       y       z     vdW  Elec       q    Type
REMARK                         _______ _______ _______ _____ _____    ______ ____
ROOT
ATOM      1  O   HOH     1     -17.843  95.990  16.434  0.00  0.00    +0.000 OA
ENDROOT
TORSDOF 0
REMARK  Name = ../refined-set-2016/4cpy/4cpy_pocket.pdb
REMARK  177 active torsions:
REMARK  status: ('A' for Active; 'I' for Inactive)
REMARK    1  A    between atoms: _1  and  _3
REMARK    2  A    between atoms: _3  and  _4
REMARK    3  A    between atoms: _3  and  _6
REMARK    4  A    between atoms: _6  and  _7
REMARK    5  A    between atoms: _7  and  _8
REMARK    6  A    between atoms: _8  and  _9
REMARK    7  A    between atoms: _18  and  _20
REMARK    8  A    between atoms: _20  and  _21
REMARK    9  A    between atoms: _20  and  _23
REMARK   10  A    between atoms: _23  and  _24
REMARK   11  A    between atoms: _24  and  _25
REMARK   12  A    between atoms: _28  and  _30
REMARK   13  A    between atoms: _30  and  _31
REMARK   14  A    between atoms: _30  and  _33
REMARK   15  A    between atoms: _33  and  _34
REMARK   16  A    between atoms: _37  and  _39
REMARK   17  A    between atoms: _39  and  _40
REMARK   18  A    between atoms: _39  and  _42
REMARK   19  A    between atoms: _42  and  _43
REMARK   20  A    between atoms: _48  and  _50
REMARK   21  A    between atoms: _50  and  _51
REMARK   22  A    between atoms: _50  and  _53
REMARK   23  A    between atoms: _53  and  _54
REMARK   24  A    between atoms: _54  and  _55
REMARK   25  A    between atoms: _55  and  _56
REMARK   26  A    between atoms: _65  and  _67
REMARK   27  A    between atoms: _67  and  _68
REMARK   28  A    between atoms: _70  and  _72
REMARK   29  A    between atoms: _72  and  _73
REMARK   30  A    between atoms: _72  and  _75
REMARK   31  A    between atoms: _75  and  _76
REMARK   32  A    between atoms: _79  and  _81
REMARK   33  A    between atoms: _81  and  _82
REMARK   34  A    between atoms: _81  and  _84
REMARK   35  A    between atoms: _84  and  _85
REMARK   36  A    between atoms: _85  and  _86
REMARK   37  A    between atoms: _86  and  _87
REMARK   38  A    between atoms: _96  and  _98
REMARK   39  A    between atoms: _98  and  _99
REMARK   40  A    between atoms: _98  and  _101
REMARK   41  A    between atoms: _101  and  _102
REMARK   42  A    between atoms: _107  and  _109
REMARK   43  A    between atoms: _109  and  _110
REMARK   44  A    between atoms: _109  and  _112
REMARK   45  A    between atoms: _112  and  _113
REMARK   46  A    between atoms: _113  and  _114
REMARK   47  A    between atoms: _114  and  _115
REMARK   48  A    between atoms: _124  and  _126
REMARK   49  A    between atoms: _126  and  _127
REMARK   50  A    between atoms: _126  and  _129
REMARK   51  A    between atoms: _129  and  _130
REMARK   52  A    between atoms: _140  and  _142
REMARK   53  A    between atoms: _142  and  _143
REMARK   54  A    between atoms: _142  and  _145
REMARK   55  A    between atoms: _145  and  _146
REMARK   56  A    between atoms: _148  and  _150
REMARK   57  A    between atoms: _150  and  _151
REMARK   58  A    between atoms: _153  and  _155
REMARK   59  A    between atoms: _155  and  _156
REMARK   60  A    between atoms: _155  and  _158
REMARK   61  A    between atoms: _161  and  _163
REMARK   62  A    between atoms: _163  and  _164
REMARK   63  A    between atoms: _163  and  _166
REMARK   64  A    between atoms: _166  and  _167
REMARK   65  A    between atoms: _170  and  _172
REMARK   66  A    between atoms: _172  and  _173
REMARK   67  A    between atoms: _172  and  _175
REMARK   68  A    between atoms: _175  and  _176
REMARK   69  A    between atoms: _179  and  _181
REMARK   70  A    between atoms: _181  and  _182
REMARK   71  A    between atoms: _181  and  _184
REMARK   72  A    between atoms: _184  and  _185
REMARK   73  A    between atoms: _188  and  _190
REMARK   74  A    between atoms: _190  and  _191
REMARK   75  A    between atoms: _190  and  _193
REMARK   76  A    between atoms: _193  and  _194
REMARK   77  A    between atoms: _194  and  _195
REMARK   78  A    between atoms: _195  and  _196
REMARK   79  A    between atoms: _205  and  _207
REMARK   80  A    between atoms: _207  and  _208
REMARK   81  A    between atoms: _207  and  _210
REMARK   82  A    between atoms: _210  and  _211
REMARK   83  A    between atoms: _214  and  _216
REMARK   84  A    between atoms: _216  and  _217
REMARK   85  A    between atoms: _216  and  _219
REMARK   86  A    between atoms: _219  and  _220
REMARK   87  A    between atoms: _220  and  _221
REMARK   88  A    between atoms: _224  and  _226
REMARK   89  A    between atoms: _226  and  _227
REMARK   90  A    between atoms: _226  and  _229
REMARK   91  A    between atoms: _229  and  _230
REMARK   92  A    between atoms: _233  and  _235
REMARK   93  A    between atoms: _235  and  _236
REMARK   94  A    between atoms: _238  and  _240
REMARK   95  A    between atoms: _240  and  _241
REMARK   96  A    between atoms: _240  and  _243
REMARK   97  A    between atoms: _243  and  _244
REMARK   98  A    between atoms: _246  and  _248
REMARK   99  A    between atoms: _248  and  _249
REMARK  100  A    between atoms: _252  and  _254
REMARK  101  A    between atoms: _254  and  _255
REMARK  102  A    between atoms: _254  and  _257
REMARK  103  A    between atoms: _257  and  _258
REMARK  104  A    between atoms: _260  and  _262
REMARK  105  A    between atoms: _262  and  _263
REMARK  106  A    between atoms: _262  and  _265
REMARK  107  A    between atoms: _265  and  _266
REMARK  108  A    between atoms: _268  and  _270
REMARK  109  A    between atoms: _270  and  _271
REMARK  110  A    between atoms: _270  and  _273
REMARK  111  A    between atoms: _273  and  _274
REMARK  112  A    between atoms: _279  and  _281
REMARK  113  A    between atoms: _281  and  _282
REMARK  114  A    between atoms: _281  and  _284
REMARK  115  A    between atoms: _284  and  _285
REMARK  116  A    between atoms: _285  and  _286
REMARK  117  A    between atoms: _289  and  _291
REMARK  118  A    between atoms: _291  and  _292
REMARK  119  A    between atoms: _291  and  _294
REMARK  120  A    between atoms: _294  and  _295
REMARK  121  A    between atoms: _295  and  _296
REMARK  122  A    between atoms: _299  and  _301
REMARK  123  A    between atoms: _301  and  _302
REMARK  124  A    between atoms: _301  and  _304
REMARK  125  A    between atoms: _304  and  _305
REMARK  126  A    between atoms: _305  and  _306
REMARK  127  A    between atoms: _306  and  _307
REMARK  128  A    between atoms: _316  and  _318
REMARK  129  A    between atoms: _318  and  _319
REMARK  130  A    between atoms: _318  and  _321
REMARK  131  A    between atoms: _321  and  _322
REMARK  132  A    between atoms: _327  and  _329
REMARK  133  A    between atoms: _329  and  _330
REMARK  134  A    between atoms: _329  and  _332
REMARK  135  A    between atoms: _332  and  _333
REMARK  136  A    between atoms: _336  and  _338
REMARK  137  A    between atoms: _338  and  _339
REMARK  138  A    between atoms: _341  and  _343
REMARK  139  A    between atoms: _343  and  _344
REMARK  140  A    between atoms: _346  and  _348
REMARK  141  A    between atoms: _348  and  _349
REMARK  142  A    between atoms: _348  and  _351
REMARK  143  A    between atoms: _351  and  _352
REMARK  144  A    between atoms: _355  and  _357
REMARK  145  A    between atoms: _357  and  _358
REMARK  146  A    between atoms: _357  and  _360
REMARK  147  A    between atoms: _360  and  _361
REMARK  148  A    between atoms: _361  and  _362
REMARK  149  A    between atoms: _362  and  _363
REMARK  150  A    between atoms: _363  and  _364
REMARK  151  A    between atoms: _368  and  _370
REMARK  152  A    between atoms: _370  and  _371
REMARK  153  A    between atoms: _370  and  _373
REMARK  154  A    between atoms: _373  and  _374
REMARK  155  A    between atoms: _374  and  _375
REMARK  156  A    between atoms: _375  and  _376
REMARK  157  A    between atoms: _385  and  _387
REMARK  158  A    between atoms: _387  and  _388
REMARK  159  A    between atoms: _387  and  _390
REMARK  160  A    between atoms: _390  and  _391
REMARK  161  A    between atoms: _401  and  _403
REMARK  162  A    between atoms: _403  and  _404
REMARK  163  A    between atoms: _403  and  _406
REMARK  164  A    between atoms: _406  and  _407
REMARK  165  A    between atoms: _412  and  _413
REMARK  166  A    between atoms: _415  and  _417
REMARK  167  A    between atoms: _417  and  _418
REMARK  168  A    between atoms: _417  and  _420
REMARK  169  A    between atoms: _420  and  _421
REMARK  170  A    between atoms: _421  and  _422
REMARK  171  A    between atoms: _425  and  _427
REMARK  172  A    between atoms: _427  and  _428
REMARK  173  A    between atoms: _427  and  _430
REMARK  174  A    between atoms: _433  and  _435
REMARK  175  A    between atoms: _435  and  _436
REMARK  176  A    between atoms: _435  and  _438
REMARK  177  A    between atoms: _438  and  _439
REMARK                            x       y       z     vdW  Elec       q    Type
REMARK                         _______ _______ _______ _____ _____    ______ ____
ROOT
ATOM      1  O   HOH     1     -21.209  86.756  17.144  0.00  0.00    +0.000 OA
ENDROOT
TORSDOF 0
REMARK  Name = ../refined-set-2016/4cpy/4cpy_pocket.pdb
REMARK  177 active torsions:
REMARK  status: ('A' for Active; 'I' for Inactive)
REMARK    1  A    between atoms: _1  and  _3
REMARK    2  A    between atoms: _3  and  _4
REMARK    3  A    between atoms: _3  and  _6
REMARK    4  A    between atoms: _6  and  _7
REMARK    5  A    between atoms: _7  and  _8
REMARK    6  A    between atoms: _8  and  _9
REMARK    7  A    between atoms: _18  and  _20
REMARK    8  A    between atoms: _20  and  _21
REMARK    9  A    between atoms: _20  and  _23
REMARK   10  A    between atoms: _23  and  _24
REMARK   11  A    between atoms: _24  and  _25
REMARK   12  A    between atoms: _28  and  _30
REMARK   13  A    between atoms: _30  and  _31
REMARK   14  A    between atoms: _30  and  _33
REMARK   15  A    between atoms: _33  and  _34
REMARK   16  A    between atoms: _37  and  _39
REMARK   17  A    between atoms: _39  and  _40
REMARK   18  A    between atoms: _39  and  _42
REMARK   19  A    between atoms: _42  and  _43
REMARK   20  A    between atoms: _48  and  _50
REMARK   21  A    between atoms: _50  and  _51
REMARK   22  A    between atoms: _50  and  _53
REMARK   23  A    between atoms: _53  and  _54
REMARK   24  A    between atoms: _54  and  _55
REMARK   25  A    between atoms: _55  and  _56
REMARK   26  A    between atoms: _65  and  _67
REMARK   27  A    between atoms: _67  and  _68
REMARK   28  A    between atoms: _70  and  _72
REMARK   29  A    between atoms: _72  and  _73
REMARK   30  A    between atoms: _72  and  _75
REMARK   31  A    between atoms: _75  and  _76
REMARK   32  A    between atoms: _79  and  _81
REMARK   33  A    between atoms: _81  and  _82
REMARK   34  A    between atoms: _81  and  _84
REMARK   35  A    between atoms: _84  and  _85
REMARK   36  A    between atoms: _85  and  _86
REMARK   37  A    between atoms: _86  and  _87
REMARK   38  A    between atoms: _96  and  _98
REMARK   39  A    between atoms: _98  and  _99
REMARK   40  A    between atoms: _98  and  _101
REMARK   41  A    between atoms: _101  and  _102
REMARK   42  A    between atoms: _107  and  _109
REMARK   43  A    between atoms: _109  and  _110
REMARK   44  A    between atoms: _109  and  _112
REMARK   45  A    between atoms: _112  and  _113
REMARK   46  A    between atoms: _113  and  _114
REMARK   47  A    between atoms: _114  and  _115
REMARK   48  A    between atoms: _124  and  _126
REMARK   49  A    between atoms: _126  and  _127
REMARK   50  A    between atoms: _126  and  _129
REMARK   51  A    between atoms: _129  and  _130
REMARK   52  A    between atoms: _140  and  _142
REMARK   53  A    between atoms: _142  and  _143
REMARK   54  A    between atoms: _142  and  _145
REMARK   55  A    between atoms: _145  and  _146
REMARK   56  A    between atoms: _148  and  _150
REMARK   57  A    between atoms: _150  and  _151
REMARK   58  A    between atoms: _153  and  _155
REMARK   59  A    between atoms: _155  and  _156
REMARK   60  A    between atoms: _155  and  _158
REMARK   61  A    between atoms: _161  and  _163
REMARK   62  A    between atoms: _163  and  _164
REMARK   63  A    between atoms: _163  and  _166
REMARK   64  A    between atoms: _166  and  _167
REMARK   65  A    between atoms: _170  and  _172
REMARK   66  A    between atoms: _172  and  _173
REMARK   67  A    between atoms: _172  and  _175
REMARK   68  A    between atoms: _175  and  _176
REMARK   69  A    between atoms: _179  and  _181
REMARK   70  A    between atoms: _181  and  _182
REMARK   71  A    between atoms: _181  and  _184
REMARK   72  A    between atoms: _184  and  _185
REMARK   73  A    between atoms: _188  and  _190
REMARK   74  A    between atoms: _190  and  _191
REMARK   75  A    between atoms: _190  and  _193
REMARK   76  A    between atoms: _193  and  _194
REMARK   77  A    between atoms: _194  and  _195
REMARK   78  A    between atoms: _195  and  _196
REMARK   79  A    between atoms: _205  and  _207
REMARK   80  A    between atoms: _207  and  _208
REMARK   81  A    between atoms: _207  and  _210
REMARK   82  A    between atoms: _210  and  _211
REMARK   83  A    between atoms: _214  and  _216
REMARK   84  A    between atoms: _216  and  _217
REMARK   85  A    between atoms: _216  and  _219
REMARK   86  A    between atoms: _219  and  _220
REMARK   87  A    between atoms: _220  and  _221
REMARK   88  A    between atoms: _224  and  _226
REMARK   89  A    between atoms: _226  and  _227
REMARK   90  A    between atoms: _226  and  _229
REMARK   91  A    between atoms: _229  and  _230
REMARK   92  A    between atoms: _233  and  _235
REMARK   93  A    between atoms: _235  and  _236
REMARK   94  A    between atoms: _238  and  _240
REMARK   95  A    between atoms: _240  and  _241
REMARK   96  A    between atoms: _240  and  _243
REMARK   97  A    between atoms: _243  and  _244
REMARK   98  A    between atoms: _246  and  _248
REMARK   99  A    between atoms: _248  and  _249
REMARK  100  A    between atoms: _252  and  _254
REMARK  101  A    between atoms: _254  and  _255
REMARK  102  A    between atoms: _254  and  _257
REMARK  103  A    between atoms: _257  and  _258
REMARK  104  A    between atoms: _260  and  _262
REMARK  105  A    between atoms: _262  and  _263
REMARK  106  A    between atoms: _262  and  _265
REMARK  107  A    between atoms: _265  and  _266
REMARK  108  A    between atoms: _268  and  _270
REMARK  109  A    between atoms: _270  and  _271
REMARK  110  A    between atoms: _270  and  _273
REMARK  111  A    between atoms: _273  and  _274
REMARK  112  A    between atoms: _279  and  _281
REMARK  113  A    between atoms: _281  and  _282
REMARK  114  A    between atoms: _281  and  _284
REMARK  115  A    between atoms: _284  and  _285
REMARK  116  A    between atoms: _285  and  _286
REMARK  117  A    between atoms: _289  and  _291
REMARK  118  A    between atoms: _291  and  _292
REMARK  119  A    between atoms: _291  and  _294
REMARK  120  A    between atoms: _294  and  _295
REMARK  121  A    between atoms: _295  and  _296
REMARK  122  A    between atoms: _299  and  _301
REMARK  123  A    between atoms: _301  and  _302
REMARK  124  A    between atoms: _301  and  _304
REMARK  125  A    between atoms: _304  and  _305
REMARK  126  A    between atoms: _305  and  _306
REMARK  127  A    between atoms: _306  and  _307
REMARK  128  A    between atoms: _316  and  _318
REMARK  129  A    between atoms: _318  and  _319
REMARK  130  A    between atoms: _318  and  _321
REMARK  131  A    between atoms: _321  and  _322
REMARK  132  A    between atoms: _327  and  _329
REMARK  133  A    between atoms: _329  and  _330
REMARK  134  A    between atoms: _329  and  _332
REMARK  135  A    between atoms: _332  and  _333
REMARK  136  A    between atoms: _336  and  _338
REMARK  137  A    between atoms: _338  and  _339
REMARK  138  A    between atoms: _341  and  _343
REMARK  139  A    between atoms: _343  and  _344
REMARK  140  A    between atoms: _346  and  _348
REMARK  141  A    between atoms: _348  and  _349
REMARK  142  A    between atoms: _348  and  _351
REMARK  143  A    between atoms: _351  and  _352
REMARK  144  A    between atoms: _355  and  _357
REMARK  145  A    between atoms: _357  and  _358
REMARK  146  A    between atoms: _357  and  _360
REMARK  147  A    between atoms: _360  and  _361
REMARK  148  A    between atoms: _361  and  _362
REMARK  149  A    between atoms: _362  and  _363
REMARK  150  A    between atoms: _363  and  _364
REMARK  151  A    between atoms: _368  and  _370
REMARK  152  A    between atoms: _370  and  _371
REMARK  153  A    between atoms: _370  and  _373
REMARK  154  A    between atoms: _373  and  _374
REMARK  155  A    between atoms: _374  and  _375
REMARK  156  A    between atoms: _375  and  _376
REMARK  157  A    between atoms: _385  and  _387
REMARK  158  A    between atoms: _387  and  _388
REMARK  159  A    between atoms: _387  and  _390
REMARK  160  A    between atoms: _390  and  _391
REMARK  161  A    between atoms: _401  and  _403
REMARK  162  A    between atoms: _403  and  _404
REMARK  163  A    between atoms: _403  and  _406
REMARK  164  A    between atoms: _406  and  _407
REMARK  165  A    between atoms: _412  and  _413
REMARK  166  A    between atoms: _415  and  _417
REMARK  167  A    between atoms: _417  and  _418
REMARK  168  A    between atoms: _417  and  _420
REMARK  169  A    between atoms: _420  and  _421
REMARK  170  A    between atoms: _421  and  _422
REMARK  171  A    between atoms: _425  and  _427
REMARK  172  A    between atoms: _427  and  _428
REMARK  173  A    between atoms: _427  and  _430
REMARK  174  A    between atoms: _433  and  _435
REMARK  175  A    between atoms: _435  and  _436
REMARK  176  A    between atoms: _435  and  _438
REMARK  177  A    between atoms: _438  and  _439
REMARK                            x       y       z     vdW  Elec       q    Type
REMARK                         _______ _______ _______ _____ _____    ______ ____
ROOT
ATOM      1  O   HOH     1     -16.818  92.873  24.660  0.00  0.00    +0.000 OA
ENDROOT
TORSDOF 0
REMARK  Name = ../refined-set-2016/4cpy/4cpy_pocket.pdb
REMARK  177 active torsions:
REMARK  status: ('A' for Active; 'I' for Inactive)
REMARK    1  A    between atoms: _1  and  _3
REMARK    2  A    between atoms: _3  and  _4
REMARK    3  A    between atoms: _3  and  _6
REMARK    4  A    between atoms: _6  and  _7
REMARK    5  A    between atoms: _7  and  _8
REMARK    6  A    between atoms: _8  and  _9
REMARK    7  A    between atoms: _18  and  _20
REMARK    8  A    between atoms: _20  and  _21
REMARK    9  A    between atoms: _20  and  _23
REMARK   10  A    between atoms: _23  and  _24
REMARK   11  A    between atoms: _24  and  _25
REMARK   12  A    between atoms: _28  and  _30
REMARK   13  A    between atoms: _30  and  _31
REMARK   14  A    between atoms: _30  and  _33
REMARK   15  A    between atoms: _33  and  _34
REMARK   16  A    between atoms: _37  and  _39
REMARK   17  A    between atoms: _39  and  _40
REMARK   18  A    between atoms: _39  and  _42
REMARK   19  A    between atoms: _42  and  _43
REMARK   20  A    between atoms: _48  and  _50
REMARK   21  A    between atoms: _50  and  _51
REMARK   22  A    between atoms: _50  and  _53
REMARK   23  A    between atoms: _53  and  _54
REMARK   24  A    between atoms: _54  and  _55
REMARK   25  A    between atoms: _55  and  _56
REMARK   26  A    between atoms: _65  and  _67
REMARK   27  A    between atoms: _67  and  _68
REMARK   28  A    between atoms: _70  and  _72
REMARK   29  A    between atoms: _72  and  _73
REMARK   30  A    between atoms: _72  and  _75
REMARK   31  A    between atoms: _75  and  _76
REMARK   32  A    between atoms: _79  and  _81
REMARK   33  A    between atoms: _81  and  _82
REMARK   34  A    between atoms: _81  and  _84
REMARK   35  A    between atoms: _84  and  _85
REMARK   36  A    between atoms: _85  and  _86
REMARK   37  A    between atoms: _86  and  _87
REMARK   38  A    between atoms: _96  and  _98
REMARK   39  A    between atoms: _98  and  _99
REMARK   40  A    between atoms: _98  and  _101
REMARK   41  A    between atoms: _101  and  _102
REMARK   42  A    between atoms: _107  and  _109
REMARK   43  A    between atoms: _109  and  _110
REMARK   44  A    between atoms: _109  and  _112
REMARK   45  A    between atoms: _112  and  _113
REMARK   46  A    between atoms: _113  and  _114
REMARK   47  A    between atoms: _114  and  _115
REMARK   48  A    between atoms: _124  and  _126
REMARK   49  A    between atoms: _126  and  _127
REMARK   50  A    between atoms: _126  and  _129
REMARK   51  A    between atoms: _129  and  _130
REMARK   52  A    between atoms: _140  and  _142
REMARK   53  A    between atoms: _142  and  _143
REMARK   54  A    between atoms: _142  and  _145
REMARK   55  A    between atoms: _145  and  _146
REMARK   56  A    between atoms: _148  and  _150
REMARK   57  A    between atoms: _150  and  _151
REMARK   58  A    between atoms: _153  and  _155
REMARK   59  A    between atoms: _155  and  _156
REMARK   60  A    between atoms: _155  and  _158
REMARK   61  A    between atoms: _161  and  _163
REMARK   62  A    between atoms: _163  and  _164
REMARK   63  A    between atoms: _163  and  _166
REMARK   64  A    between atoms: _166  and  _167
REMARK   65  A    between atoms: _170  and  _172
REMARK   66  A    between atoms: _172  and  _173
REMARK   67  A    between atoms: _172  and  _175
REMARK   68  A    between atoms: _175  and  _176
REMARK   69  A    between atoms: _179  and  _181
REMARK   70  A    between atoms: _181  and  _182
REMARK   71  A    between atoms: _181  and  _184
REMARK   72  A    between atoms: _184  and  _185
REMARK   73  A    between atoms: _188  and  _190
REMARK   74  A    between atoms: _190  and  _191
REMARK   75  A    between atoms: _190  and  _193
REMARK   76  A    between atoms: _193  and  _194
REMARK   77  A    between atoms: _194  and  _195
REMARK   78  A    between atoms: _195  and  _196
REMARK   79  A    between atoms: _205  and  _207
REMARK   80  A    between atoms: _207  and  _208
REMARK   81  A    between atoms: _207  and  _210
REMARK   82  A    between atoms: _210  and  _211
REMARK   83  A    between atoms: _214  and  _216
REMARK   84  A    between atoms: _216  and  _217
REMARK   85  A    between atoms: _216  and  _219
REMARK   86  A    between atoms: _219  and  _220
REMARK   87  A    between atoms: _220  and  _221
REMARK   88  A    between atoms: _224  and  _226
REMARK   89  A    between atoms: _226  and  _227
REMARK   90  A    between atoms: _226  and  _229
REMARK   91  A    between atoms: _229  and  _230
REMARK   92  A    between atoms: _233  and  _235
REMARK   93  A    between atoms: _235  and  _236
REMARK   94  A    between atoms: _238  and  _240
REMARK   95  A    between atoms: _240  and  _241
REMARK   96  A    between atoms: _240  and  _243
REMARK   97  A    between atoms: _243  and  _244
REMARK   98  A    between atoms: _246  and  _248
REMARK   99  A    between atoms: _248  and  _249
REMARK  100  A    between atoms: _252  and  _254
REMARK  101  A    between atoms: _254  and  _255
REMARK  102  A    between atoms: _254  and  _257
REMARK  103  A    between atoms: _257  and  _258
REMARK  104  A    between atoms: _260  and  _262
REMARK  105  A    between atoms: _262  and  _263
REMARK  106  A    between atoms: _262  and  _265
REMARK  107  A    between atoms: _265  and  _266
REMARK  108  A    between atoms: _268  and  _270
REMARK  109  A    between atoms: _270  and  _271
REMARK  110  A    between atoms: _270  and  _273
REMARK  111  A    between atoms: _273  and  _274
REMARK  112  A    between atoms: _279  and  _281
REMARK  113  A    between atoms: _281  and  _282
REMARK  114  A    between atoms: _281  and  _284
REMARK  115  A    between atoms: _284  and  _285
REMARK  116  A    between atoms: _285  and  _286
REMARK  117  A    between atoms: _289  and  _291
REMARK  118  A    between atoms: _291  and  _292
REMARK  119  A    between atoms: _291  and  _294
REMARK  120  A    between atoms: _294  and  _295
REMARK  121  A    between atoms: _295  and  _296
REMARK  122  A    between atoms: _299  and  _301
REMARK  123  A    between atoms: _301  and  _302
REMARK  124  A    between atoms: _301  and  _304
REMARK  125  A    between atoms: _304  and  _305
REMARK  126  A    between atoms: _305  and  _306
REMARK  127  A    between atoms: _306  and  _307
REMARK  128  A    between atoms: _316  and  _318
REMARK  129  A    between atoms: _318  and  _319
REMARK  130  A    between atoms: _318  and  _321
REMARK  131  A    between atoms: _321  and  _322
REMARK  132  A    between atoms: _327  and  _329
REMARK  133  A    between atoms: _329  and  _330
REMARK  134  A    between atoms: _329  and  _332
REMARK  135  A    between atoms: _332  and  _333
REMARK  136  A    between atoms: _336  and  _338
REMARK  137  A    between atoms: _338  and  _339
REMARK  138  A    between atoms: _341  and  _343
REMARK  139  A    between atoms: _343  and  _344
REMARK  140  A    between atoms: _346  and  _348
REMARK  141  A    between atoms: _348  and  _349
REMARK  142  A    between atoms: _348  and  _351
REMARK  143  A    between atoms: _351  and  _352
REMARK  144  A    between atoms: _355  and  _357
REMARK  145  A    between atoms: _357  and  _358
REMARK  146  A    between atoms: _357  and  _360
REMARK  147  A    between atoms: _360  and  _361
REMARK  148  A    between atoms: _361  and  _362
REMARK  149  A    between atoms: _362  and  _363
REMARK  150  A    between atoms: _363  and  _364
REMARK  151  A    between atoms: _368  and  _370
REMARK  152  A    between atoms: _370  and  _371
REMARK  153  A    between atoms: _370  and  _373
REMARK  154  A    between atoms: _373  and  _374
REMARK  155  A    between atoms: _374  and  _375
REMARK  156  A    between atoms: _375  and  _376
REMARK  157  A    between atoms: _385  and  _387
REMARK  158  A    between atoms: _387  and  _388
REMARK  159  A    between atoms: _387  and  _390
REMARK  160  A    between atoms: _390  and  _391
REMARK  161  A    between atoms: _401  and  _403
REMARK  162  A    between atoms: _403  and  _404
REMARK  163  A    between atoms: _403  and  _406
REMARK  164  A    between atoms: _406  and  _407
REMARK  165  A    between atoms: _412  and  _413
REMARK  166  A    between atoms: _415  and  _417
REMARK  167  A    between atoms: _417  and  _418
REMARK  168  A    between atoms: _417  and  _420
REMARK  169  A    between atoms: _420  and  _421
REMARK  170  A    between atoms: _421  and  _422
REMARK  171  A    between atoms: _425  and  _427
REMARK  172  A    between atoms: _427  and  _428
REMARK  173  A    between atoms: _427  and  _430
REMARK  174  A    between atoms: _433  and  _435
REMARK  175  A    between atoms: _435  and  _436
REMARK  176  A    between atoms: _435  and  _438
REMARK  177  A    between atoms: _438  and  _439
REMARK                            x       y       z     vdW  Elec       q    Type
REMARK                         _______ _______ _______ _____ _____    ______ ____
ROOT
ATOM      1  O   HOH     1     -13.600  97.157  19.889  0.00  0.00    +0.000 OA
ENDROOT
TORSDOF 0
REMARK  Name = ../refined-set-2016/4cpy/4cpy_pocket.pdb
REMARK  177 active torsions:
REMARK  status: ('A' for Active; 'I' for Inactive)
REMARK    1  A    between atoms: _1  and  _3
REMARK    2  A    between atoms: _3  and  _4
REMARK    3  A    between atoms: _3  and  _6
REMARK    4  A    between atoms: _6  and  _7
REMARK    5  A    between atoms: _7  and  _8
REMARK    6  A    between atoms: _8  and  _9
REMARK    7  A    between atoms: _18  and  _20
REMARK    8  A    between atoms: _20  and  _21
REMARK    9  A    between atoms: _20  and  _23
REMARK   10  A    between atoms: _23  and  _24
REMARK   11  A    between atoms: _24  and  _25
REMARK   12  A    between atoms: _28  and  _30
REMARK   13  A    between atoms: _30  and  _31
REMARK   14  A    between atoms: _30  and  _33
REMARK   15  A    between atoms: _33  and  _34
REMARK   16  A    between atoms: _37  and  _39
REMARK   17  A    between atoms: _39  and  _40
REMARK   18  A    between atoms: _39  and  _42
REMARK   19  A    between atoms: _42  and  _43
REMARK   20  A    between atoms: _48  and  _50
REMARK   21  A    between atoms: _50  and  _51
REMARK   22  A    between atoms: _50  and  _53
REMARK   23  A    between atoms: _53  and  _54
REMARK   24  A    between atoms: _54  and  _55
REMARK   25  A    between atoms: _55  and  _56
REMARK   26  A    between atoms: _65  and  _67
REMARK   27  A    between atoms: _67  and  _68
REMARK   28  A    between atoms: _70  and  _72
REMARK   29  A    between atoms: _72  and  _73
REMARK   30  A    between atoms: _72  and  _75
REMARK   31  A    between atoms: _75  and  _76
REMARK   32  A    between atoms: _79  and  _81
REMARK   33  A    between atoms: _81  and  _82
REMARK   34  A    between atoms: _81  and  _84
REMARK   35  A    between atoms: _84  and  _85
REMARK   36  A    between atoms: _85  and  _86
REMARK   37  A    between atoms: _86  and  _87
REMARK   38  A    between atoms: _96  and  _98
REMARK   39  A    between atoms: _98  and  _99
REMARK   40  A    between atoms: _98  and  _101
REMARK   41  A    between atoms: _101  and  _102
REMARK   42  A    between atoms: _107  and  _109
REMARK   43  A    between atoms: _109  and  _110
REMARK   44  A    between atoms: _109  and  _112
REMARK   45  A    between atoms: _112  and  _113
REMARK   46  A    between atoms: _113  and  _114
REMARK   47  A    between atoms: _114  and  _115
REMARK   48  A    between atoms: _124  and  _126
REMARK   49  A    between atoms: _126  and  _127
REMARK   50  A    between atoms: _126  and  _129
REMARK   51  A    between atoms: _129  and  _130
REMARK   52  A    between atoms: _140  and  _142
REMARK   53  A    between atoms: _142  and  _143
REMARK   54  A    between atoms: _142  and  _145
REMARK   55  A    between atoms: _145  and  _146
REMARK   56  A    between atoms: _148  and  _150
REMARK   57  A    between atoms: _150  and  _151
REMARK   58  A    between atoms: _153  and  _155
REMARK   59  A    between atoms: _155  and  _156
REMARK   60  A    between atoms: _155  and  _158
REMARK   61  A    between atoms: _161  and  _163
REMARK   62  A    between atoms: _163  and  _164
REMARK   63  A    between atoms: _163  and  _166
REMARK   64  A    between atoms: _166  and  _167
REMARK   65  A    between atoms: _170  and  _172
REMARK   66  A    between atoms: _172  and  _173
REMARK   67  A    between atoms: _172  and  _175
REMARK   68  A    between atoms: _175  and  _176
REMARK   69  A    between atoms: _179  and  _181
REMARK   70  A    between atoms: _181  and  _182
REMARK   71  A    between atoms: _181  and  _184
REMARK   72  A    between atoms: _184  and  _185
REMARK   73  A    between atoms: _188  and  _190
REMARK   74  A    between atoms: _190  and  _191
REMARK   75  A    between atoms: _190  and  _193
REMARK   76  A    between atoms: _193  and  _194
REMARK   77  A    between atoms: _194  and  _195
REMARK   78  A    between atoms: _195  and  _196
REMARK   79  A    between atoms: _205  and  _207
REMARK   80  A    between atoms: _207  and  _208
REMARK   81  A    between atoms: _207  and  _210
REMARK   82  A    between atoms: _210  and  _211
REMARK   83  A    between atoms: _214  and  _216
REMARK   84  A    between atoms: _216  and  _217
REMARK   85  A    between atoms: _216  and  _219
REMARK   86  A    between atoms: _219  and  _220
REMARK   87  A    between atoms: _220  and  _221
REMARK   88  A    between atoms: _224  and  _226
REMARK   89  A    between atoms: _226  and  _227
REMARK   90  A    between atoms: _226  and  _229
REMARK   91  A    between atoms: _229  and  _230
REMARK   92  A    between atoms: _233  and  _235
REMARK   93  A    between atoms: _235  and  _236
REMARK   94  A    between atoms: _238  and  _240
REMARK   95  A    between atoms: _240  and  _241
REMARK   96  A    between atoms: _240  and  _243
REMARK   97  A    between atoms: _243  and  _244
REMARK   98  A    between atoms: _246  and  _248
REMARK   99  A    between atoms: _248  and  _249
REMARK  100  A    between atoms: _252  and  _254
REMARK  101  A    between atoms: _254  and  _255
REMARK  102  A    between atoms: _254  and  _257
REMARK  103  A    between atoms: _257  and  _258
REMARK  104  A    between atoms: _260  and  _262
REMARK  105  A    between atoms: _262  and  _263
REMARK  106  A    between atoms: _262  and  _265
REMARK  107  A    between atoms: _265  and  _266
REMARK  108  A    between atoms: _268  and  _270
REMARK  109  A    between atoms: _270  and  _271
REMARK  110  A    between atoms: _270  and  _273
REMARK  111  A    between atoms: _273  and  _274
REMARK  112  A    between atoms: _279  and  _281
REMARK  113  A    between atoms: _281  and  _282
REMARK  114  A    between atoms: _281  and  _284
REMARK  115  A    between atoms: _284  and  _285
REMARK  116  A    between atoms: _285  and  _286
REMARK  117  A    between atoms: _289  and  _291
REMARK  118  A    between atoms: _291  and  _292
REMARK  119  A    between atoms: _291  and  _294
REMARK  120  A    between atoms: _294  and  _295
REMARK  121  A    between atoms: _295  and  _296
REMARK  122  A    between atoms: _299  and  _301
REMARK  123  A    between atoms: _301  and  _302
REMARK  124  A    between atoms: _301  and  _304
REMARK  125  A    between atoms: _304  and  _305
REMARK  126  A    between atoms: _305  and  _306
REMARK  127  A    between atoms: _306  and  _307
REMARK  128  A    between atoms: _316  and  _318
REMARK  129  A    between atoms: _318  and  _319
REMARK  130  A    between atoms: _318  and  _321
REMARK  131  A    between atoms: _321  and  _322
REMARK  132  A    between atoms: _327  and  _329
REMARK  133  A    between atoms: _329  and  _330
REMARK  134  A    between atoms: _329  and  _332
REMARK  135  A    between atoms: _332  and  _333
REMARK  136  A    between atoms: _336  and  _338
REMARK  137  A    between atoms: _338  and  _339
REMARK  138  A    between atoms: _341  and  _343
REMARK  139  A    between atoms: _343  and  _344
REMARK  140  A    between atoms: _346  and  _348
REMARK  141  A    between atoms: _348  and  _349
REMARK  142  A    between atoms: _348  and  _351
REMARK  143  A    between atoms: _351  and  _352
REMARK  144  A    between atoms: _355  and  _357
REMARK  145  A    between atoms: _357  and  _358
REMARK  146  A    between atoms: _357  and  _360
REMARK  147  A    between atoms: _360  and  _361
REMARK  148  A    between atoms: _361  and  _362
REMARK  149  A    between atoms: _362  and  _363
REMARK  150  A    between atoms: _363  and  _364
REMARK  151  A    between atoms: _368  and  _370
REMARK  152  A    between atoms: _370  and  _371
REMARK  153  A    between atoms: _370  and  _373
REMARK  154  A    between atoms: _373  and  _374
REMARK  155  A    between atoms: _374  and  _375
REMARK  156  A    between atoms: _375  and  _376
REMARK  157  A    between atoms: _385  and  _387
REMARK  158  A    between atoms: _387  and  _388
REMARK  159  A    between atoms: _387  and  _390
REMARK  160  A    between atoms: _390  and  _391
REMARK  161  A    between atoms: _401  and  _403
REMARK  162  A    between atoms: _403  and  _404
REMARK  163  A    between atoms: _403  and  _406
REMARK  164  A    between atoms: _406  and  _407
REMARK  165  A    between atoms: _412  and  _413
REMARK  166  A    between atoms: _415  and  _417
REMARK  167  A    between atoms: _417  and  _418
REMARK  168  A    between atoms: _417  and  _420
REMARK  169  A    between atoms: _420  and  _421
REMARK  170  A    between atoms: _421  and  _422
REMARK  171  A    between atoms: _425  and  _427
REMARK  172  A    between atoms: _427  and  _428
REMARK  173  A    between atoms: _427  and  _430
REMARK  174  A    between atoms: _433  and  _435
REMARK  175  A    between atoms: _435  and  _436
REMARK  176  A    between atoms: _435  and  _438
REMARK  177  A    between atoms: _438  and  _439
REMARK                            x       y       z     vdW  Elec       q    Type
REMARK                         _______ _______ _______ _____ _____    ______ ____
ROOT
ATOM      1  O   HOH     1     -22.041  96.153   4.266  0.00  0.00    +0.000 OA
ENDROOT
TORSDOF 0
REMARK  Name = ../refined-set-2016/4cpy/4cpy_pocket.pdb
REMARK  177 active torsions:
REMARK  status: ('A' for Active; 'I' for Inactive)
REMARK    1  A    between atoms: _1  and  _3
REMARK    2  A    between atoms: _3  and  _4
REMARK    3  A    between atoms: _3  and  _6
REMARK    4  A    between atoms: _6  and  _7
REMARK    5  A    between atoms: _7  and  _8
REMARK    6  A    between atoms: _8  and  _9
REMARK    7  A    between atoms: _18  and  _20
REMARK    8  A    between atoms: _20  and  _21
REMARK    9  A    between atoms: _20  and  _23
REMARK   10  A    between atoms: _23  and  _24
REMARK   11  A    between atoms: _24  and  _25
REMARK   12  A    between atoms: _28  and  _30
REMARK   13  A    between atoms: _30  and  _31
REMARK   14  A    between atoms: _30  and  _33
REMARK   15  A    between atoms: _33  and  _34
REMARK   16  A    between atoms: _37  and  _39
REMARK   17  A    between atoms: _39  and  _40
REMARK   18  A    between atoms: _39  and  _42
REMARK   19  A    between atoms: _42  and  _43
REMARK   20  A    between atoms: _48  and  _50
REMARK   21  A    between atoms: _50  and  _51
REMARK   22  A    between atoms: _50  and  _53
REMARK   23  A    between atoms: _53  and  _54
REMARK   24  A    between atoms: _54  and  _55
REMARK   25  A    between atoms: _55  and  _56
REMARK   26  A    between atoms: _65  and  _67
REMARK   27  A    between atoms: _67  and  _68
REMARK   28  A    between atoms: _70  and  _72
REMARK   29  A    between atoms: _72  and  _73
REMARK   30  A    between atoms: _72  and  _75
REMARK   31  A    between atoms: _75  and  _76
REMARK   32  A    between atoms: _79  and  _81
REMARK   33  A    between atoms: _81  and  _82
REMARK   34  A    between atoms: _81  and  _84
REMARK   35  A    between atoms: _84  and  _85
REMARK   36  A    between atoms: _85  and  _86
REMARK   37  A    between atoms: _86  and  _87
REMARK   38  A    between atoms: _96  and  _98
REMARK   39  A    between atoms: _98  and  _99
REMARK   40  A    between atoms: _98  and  _101
REMARK   41  A    between atoms: _101  and  _102
REMARK   42  A    between atoms: _107  and  _109
REMARK   43  A    between atoms: _109  and  _110
REMARK   44  A    between atoms: _109  and  _112
REMARK   45  A    between atoms: _112  and  _113
REMARK   46  A    between atoms: _113  and  _114
REMARK   47  A    between atoms: _114  and  _115
REMARK   48  A    between atoms: _124  and  _126
REMARK   49  A    between atoms: _126  and  _127
REMARK   50  A    between atoms: _126  and  _129
REMARK   51  A    between atoms: _129  and  _130
REMARK   52  A    between atoms: _140  and  _142
REMARK   53  A    between atoms: _142  and  _143
REMARK   54  A    between atoms: _142  and  _145
REMARK   55  A    between atoms: _145  and  _146
REMARK   56  A    between atoms: _148  and  _150
REMARK   57  A    between atoms: _150  and  _151
REMARK   58  A    between atoms: _153  and  _155
REMARK   59  A    between atoms: _155  and  _156
REMARK   60  A    between atoms: _155  and  _158
REMARK   61  A    between atoms: _161  and  _163
REMARK   62  A    between atoms: _163  and  _164
REMARK   63  A    between atoms: _163  and  _166
REMARK   64  A    between atoms: _166  and  _167
REMARK   65  A    between atoms: _170  and  _172
REMARK   66  A    between atoms: _172  and  _173
REMARK   67  A    between atoms: _172  and  _175
REMARK   68  A    between atoms: _175  and  _176
REMARK   69  A    between atoms: _179  and  _181
REMARK   70  A    between atoms: _181  and  _182
REMARK   71  A    between atoms: _181  and  _184
REMARK   72  A    between atoms: _184  and  _185
REMARK   73  A    between atoms: _188  and  _190
REMARK   74  A    between atoms: _190  and  _191
REMARK   75  A    between atoms: _190  and  _193
REMARK   76  A    between atoms: _193  and  _194
REMARK   77  A    between atoms: _194  and  _195
REMARK   78  A    between atoms: _195  and  _196
REMARK   79  A    between atoms: _205  and  _207
REMARK   80  A    between atoms: _207  and  _208
REMARK   81  A    between atoms: _207  and  _210
REMARK   82  A    between atoms: _210  and  _211
REMARK   83  A    between atoms: _214  and  _216
REMARK   84  A    between atoms: _216  and  _217
REMARK   85  A    between atoms: _216  and  _219
REMARK   86  A    between atoms: _219  and  _220
REMARK   87  A    between atoms: _220  and  _221
REMARK   88  A    between atoms: _224  and  _226
REMARK   89  A    between atoms: _226  and  _227
REMARK   90  A    between atoms: _226  and  _229
REMARK   91  A    between atoms: _229  and  _230
REMARK   92  A    between atoms: _233  and  _235
REMARK   93  A    between atoms: _235  and  _236
REMARK   94  A    between atoms: _238  and  _240
REMARK   95  A    between atoms: _240  and  _241
REMARK   96  A    between atoms: _240  and  _243
REMARK   97  A    between atoms: _243  and  _244
REMARK   98  A    between atoms: _246  and  _248
REMARK   99  A    between atoms: _248  and  _249
REMARK  100  A    between atoms: _252  and  _254
REMARK  101  A    between atoms: _254  and  _255
REMARK  102  A    between atoms: _254  and  _257
REMARK  103  A    between atoms: _257  and  _258
REMARK  104  A    between atoms: _260  and  _262
REMARK  105  A    between atoms: _262  and  _263
REMARK  106  A    between atoms: _262  and  _265
REMARK  107  A    between atoms: _265  and  _266
REMARK  108  A    between atoms: _268  and  _270
REMARK  109  A    between atoms: _270  and  _271
REMARK  110  A    between atoms: _270  and  _273
REMARK  111  A    between atoms: _273  and  _274
REMARK  112  A    between atoms: _279  and  _281
REMARK  113  A    between atoms: _281  and  _282
REMARK  114  A    between atoms: _281  and  _284
REMARK  115  A    between atoms: _284  and  _285
REMARK  116  A    between atoms: _285  and  _286
REMARK  117  A    between atoms: _289  and  _291
REMARK  118  A    between atoms: _291  and  _292
REMARK  119  A    between atoms: _291  and  _294
REMARK  120  A    between atoms: _294  and  _295
REMARK  121  A    between atoms: _295  and  _296
REMARK  122  A    between atoms: _299  and  _301
REMARK  123  A    between atoms: _301  and  _302
REMARK  124  A    between atoms: _301  and  _304
REMARK  125  A    between atoms: _304  and  _305
REMARK  126  A    between atoms: _305  and  _306
REMARK  127  A    between atoms: _306  and  _307
REMARK  128  A    between atoms: _316  and  _318
REMARK  129  A    between atoms: _318  and  _319
REMARK  130  A    between atoms: _318  and  _321
REMARK  131  A    between atoms: _321  and  _322
REMARK  132  A    between atoms: _327  and  _329
REMARK  133  A    between atoms: _329  and  _330
REMARK  134  A    between atoms: _329  and  _332
REMARK  135  A    between atoms: _332  and  _333
REMARK  136  A    between atoms: _336  and  _338
REMARK  137  A    between atoms: _338  and  _339
REMARK  138  A    between atoms: _341  and  _343
REMARK  139  A    between atoms: _343  and  _344
REMARK  140  A    between atoms: _346  and  _348
REMARK  141  A    between atoms: _348  and  _349
REMARK  142  A    between atoms: _348  and  _351
REMARK  143  A    between atoms: _351  and  _352
REMARK  144  A    between atoms: _355  and  _357
REMARK  145  A    between atoms: _357  and  _358
REMARK  146  A    between atoms: _357  and  _360
REMARK  147  A    between atoms: _360  and  _361
REMARK  148  A    between atoms: _361  and  _362
REMARK  149  A    between atoms: _362  and  _363
REMARK  150  A    between atoms: _363  and  _364
REMARK  151  A    between atoms: _368  and  _370
REMARK  152  A    between atoms: _370  and  _371
REMARK  153  A    between atoms: _370  and  _373
REMARK  154  A    between atoms: _373  and  _374
REMARK  155  A    between atoms: _374  and  _375
REMARK  156  A    between atoms: _375  and  _376
REMARK  157  A    between atoms: _385  and  _387
REMARK  158  A    between atoms: _387  and  _388
REMARK  159  A    between atoms: _387  and  _390
REMARK  160  A    between atoms: _390  and  _391
REMARK  161  A    between atoms: _401  and  _403
REMARK  162  A    between atoms: _403  and  _404
REMARK  163  A    between atoms: _403  and  _406
REMARK  164  A    between atoms: _406  and  _407
REMARK  165  A    between atoms: _412  and  _413
REMARK  166  A    between atoms: _415  and  _417
REMARK  167  A    between atoms: _417  and  _418
REMARK  168  A    between atoms: _417  and  _420
REMARK  169  A    between atoms: _420  and  _421
REMARK  170  A    between atoms: _421  and  _422
REMARK  171  A    between atoms: _425  and  _427
REMARK  172  A    between atoms: _427  and  _428
REMARK  173  A    between atoms: _427  and  _430
REMARK  174  A    between atoms: _433  and  _435
REMARK  175  A    between atoms: _435  and  _436
REMARK  176  A    between atoms: _435  and  _438
REMARK  177  A    between atoms: _438  and  _439
REMARK                            x       y       z     vdW  Elec       q    Type
REMARK                         _______ _______ _______ _____ _____    ______ ____
ROOT
ATOM      1  O   HOH     1     -16.341  87.178  13.507  0.00  0.00    +0.000 OA
ENDROOT
TORSDOF 0
REMARK  Name = ../refined-set-2016/4cpy/4cpy_pocket.pdb
REMARK  177 active torsions:
REMARK  status: ('A' for Active; 'I' for Inactive)
REMARK    1  A    between atoms: _1  and  _3
REMARK    2  A    between atoms: _3  and  _4
REMARK    3  A    between atoms: _3  and  _6
REMARK    4  A    between atoms: _6  and  _7
REMARK    5  A    between atoms: _7  and  _8
REMARK    6  A    between atoms: _8  and  _9
REMARK    7  A    between atoms: _18  and  _20
REMARK    8  A    between atoms: _20  and  _21
REMARK    9  A    between atoms: _20  and  _23
REMARK   10  A    between atoms: _23  and  _24
REMARK   11  A    between atoms: _24  and  _25
REMARK   12  A    between atoms: _28  and  _30
REMARK   13  A    between atoms: _30  and  _31
REMARK   14  A    between atoms: _30  and  _33
REMARK   15  A    between atoms: _33  and  _34
REMARK   16  A    between atoms: _37  and  _39
REMARK   17  A    between atoms: _39  and  _40
REMARK   18  A    between atoms: _39  and  _42
REMARK   19  A    between atoms: _42  and  _43
REMARK   20  A    between atoms: _48  and  _50
REMARK   21  A    between atoms: _50  and  _51
REMARK   22  A    between atoms: _50  and  _53
REMARK   23  A    between atoms: _53  and  _54
REMARK   24  A    between atoms: _54  and  _55
REMARK   25  A    between atoms: _55  and  _56
REMARK   26  A    between atoms: _65  and  _67
REMARK   27  A    between atoms: _67  and  _68
REMARK   28  A    between atoms: _70  and  _72
REMARK   29  A    between atoms: _72  and  _73
REMARK   30  A    between atoms: _72  and  _75
REMARK   31  A    between atoms: _75  and  _76
REMARK   32  A    between atoms: _79  and  _81
REMARK   33  A    between atoms: _81  and  _82
REMARK   34  A    between atoms: _81  and  _84
REMARK   35  A    between atoms: _84  and  _85
REMARK   36  A    between atoms: _85  and  _86
REMARK   37  A    between atoms: _86  and  _87
REMARK   38  A    between atoms: _96  and  _98
REMARK   39  A    between atoms: _98  and  _99
REMARK   40  A    between atoms: _98  and  _101
REMARK   41  A    between atoms: _101  and  _102
REMARK   42  A    between atoms: _107  and  _109
REMARK   43  A    between atoms: _109  and  _110
REMARK   44  A    between atoms: _109  and  _112
REMARK   45  A    between atoms: _112  and  _113
REMARK   46  A    between atoms: _113  and  _114
REMARK   47  A    between atoms: _114  and  _115
REMARK   48  A    between atoms: _124  and  _126
REMARK   49  A    between atoms: _126  and  _127
REMARK   50  A    between atoms: _126  and  _129
REMARK   51  A    between atoms: _129  and  _130
REMARK   52  A    between atoms: _140  and  _142
REMARK   53  A    between atoms: _142  and  _143
REMARK   54  A    between atoms: _142  and  _145
REMARK   55  A    between atoms: _145  and  _146
REMARK   56  A    between atoms: _148  and  _150
REMARK   57  A    between atoms: _150  and  _151
REMARK   58  A    between atoms: _153  and  _155
REMARK   59  A    between atoms: _155  and  _156
REMARK   60  A    between atoms: _155  and  _158
REMARK   61  A    between atoms: _161  and  _163
REMARK   62  A    between atoms: _163  and  _164
REMARK   63  A    between atoms: _163  and  _166
REMARK   64  A    between atoms: _166  and  _167
REMARK   65  A    between atoms: _170  and  _172
REMARK   66  A    between atoms: _172  and  _173
REMARK   67  A    between atoms: _172  and  _175
REMARK   68  A    between atoms: _175  and  _176
REMARK   69  A    between atoms: _179  and  _181
REMARK   70  A    between atoms: _181  and  _182
REMARK   71  A    between atoms: _181  and  _184
REMARK   72  A    between atoms: _184  and  _185
REMARK   73  A    between atoms: _188  and  _190
REMARK   74  A    between atoms: _190  and  _191
REMARK   75  A    between atoms: _190  and  _193
REMARK   76  A    between atoms: _193  and  _194
REMARK   77  A    between atoms: _194  and  _195
REMARK   78  A    between atoms: _195  and  _196
REMARK   79  A    between atoms: _205  and  _207
REMARK   80  A    between atoms: _207  and  _208
REMARK   81  A    between atoms: _207  and  _210
REMARK   82  A    between atoms: _210  and  _211
REMARK   83  A    between atoms: _214  and  _216
REMARK   84  A    between atoms: _216  and  _217
REMARK   85  A    between atoms: _216  and  _219
REMARK   86  A    between atoms: _219  and  _220
REMARK   87  A    between atoms: _220  and  _221
REMARK   88  A    between atoms: _224  and  _226
REMARK   89  A    between atoms: _226  and  _227
REMARK   90  A    between atoms: _226  and  _229
REMARK   91  A    between atoms: _229  and  _230
REMARK   92  A    between atoms: _233  and  _235
REMARK   93  A    between atoms: _235  and  _236
REMARK   94  A    between atoms: _238  and  _240
REMARK   95  A    between atoms: _240  and  _241
REMARK   96  A    between atoms: _240  and  _243
REMARK   97  A    between atoms: _243  and  _244
REMARK   98  A    between atoms: _246  and  _248
REMARK   99  A    between atoms: _248  and  _249
REMARK  100  A    between atoms: _252  and  _254
REMARK  101  A    between atoms: _254  and  _255
REMARK  102  A    between atoms: _254  and  _257
REMARK  103  A    between atoms: _257  and  _258
REMARK  104  A    between atoms: _260  and  _262
REMARK  105  A    between atoms: _262  and  _263
REMARK  106  A    between atoms: _262  and  _265
REMARK  107  A    between atoms: _265  and  _266
REMARK  108  A    between atoms: _268  and  _270
REMARK  109  A    between atoms: _270  and  _271
REMARK  110  A    between atoms: _270  and  _273
REMARK  111  A    between atoms: _273  and  _274
REMARK  112  A    between atoms: _279  and  _281
REMARK  113  A    between atoms: _281  and  _282
REMARK  114  A    between atoms: _281  and  _284
REMARK  115  A    between atoms: _284  and  _285
REMARK  116  A    between atoms: _285  and  _286
REMARK  117  A    between atoms: _289  and  _291
REMARK  118  A    between atoms: _291  and  _292
REMARK  119  A    between atoms: _291  and  _294
REMARK  120  A    between atoms: _294  and  _295
REMARK  121  A    between atoms: _295  and  _296
REMARK  122  A    between atoms: _299  and  _301
REMARK  123  A    between atoms: _301  and  _302
REMARK  124  A    between atoms: _301  and  _304
REMARK  125  A    between atoms: _304  and  _305
REMARK  126  A    between atoms: _305  and  _306
REMARK  127  A    between atoms: _306  and  _307
REMARK  128  A    between atoms: _316  and  _318
REMARK  129  A    between atoms: _318  and  _319
REMARK  130  A    between atoms: _318  and  _321
REMARK  131  A    between atoms: _321  and  _322
REMARK  132  A    between atoms: _327  and  _329
REMARK  133  A    between atoms: _329  and  _330
REMARK  134  A    between atoms: _329  and  _332
REMARK  135  A    between atoms: _332  and  _333
REMARK  136  A    between atoms: _336  and  _338
REMARK  137  A    between atoms: _338  and  _339
REMARK  138  A    between atoms: _341  and  _343
REMARK  139  A    between atoms: _343  and  _344
REMARK  140  A    between atoms: _346  and  _348
REMARK  141  A    between atoms: _348  and  _349
REMARK  142  A    between atoms: _348  and  _351
REMARK  143  A    between atoms: _351  and  _352
REMARK  144  A    between atoms: _355  and  _357
REMARK  145  A    between atoms: _357  and  _358
REMARK  146  A    between atoms: _357  and  _360
REMARK  147  A    between atoms: _360  and  _361
REMARK  148  A    between atoms: _361  and  _362
REMARK  149  A    between atoms: _362  and  _363
REMARK  150  A    between atoms: _363  and  _364
REMARK  151  A    between atoms: _368  and  _370
REMARK  152  A    between atoms: _370  and  _371
REMARK  153  A    between atoms: _370  and  _373
REMARK  154  A    between atoms: _373  and  _374
REMARK  155  A    between atoms: _374  and  _375
REMARK  156  A    between atoms: _375  and  _376
REMARK  157  A    between atoms: _385  and  _387
REMARK  158  A    between atoms: _387  and  _388
REMARK  159  A    between atoms: _387  and  _390
REMARK  160  A    between atoms: _390  and  _391
REMARK  161  A    between atoms: _401  and  _403
REMARK  162  A    between atoms: _403  and  _404
REMARK  163  A    between atoms: _403  and  _406
REMARK  164  A    between atoms: _406  and  _407
REMARK  165  A    between atoms: _412  and  _413
REMARK  166  A    between atoms: _415  and  _417
REMARK  167  A    between atoms: _417  and  _418
REMARK  168  A    between atoms: _417  and  _420
REMARK  169  A    between atoms: _420  and  _421
REMARK  170  A    between atoms: _421  and  _422
REMARK  171  A    between atoms: _425  and  _427
REMARK  172  A    between atoms: _427  and  _428
REMARK  173  A    between atoms: _427  and  _430
REMARK  174  A    between atoms: _433  and  _435
REMARK  175  A    between atoms: _435  and  _436
REMARK  176  A    between atoms: _435  and  _438
REMARK  177  A    between atoms: _438  and  _439
REMARK                            x       y       z     vdW  Elec       q    Type
REMARK                         _______ _______ _______ _____ _____    ______ ____
ROOT
ATOM      1  O   HOH     1     -15.149  84.754  13.324  0.00  0.00    +0.000 OA
ENDROOT
TORSDOF 0
REMARK  Name = ../refined-set-2016/4cpy/4cpy_pocket.pdb
REMARK  177 active torsions:
REMARK  status: ('A' for Active; 'I' for Inactive)
REMARK    1  A    between atoms: _1  and  _3
REMARK    2  A    between atoms: _3  and  _4
REMARK    3  A    between atoms: _3  and  _6
REMARK    4  A    between atoms: _6  and  _7
REMARK    5  A    between atoms: _7  and  _8
REMARK    6  A    between atoms: _8  and  _9
REMARK    7  A    between atoms: _18  and  _20
REMARK    8  A    between atoms: _20  and  _21
REMARK    9  A    between atoms: _20  and  _23
REMARK   10  A    between atoms: _23  and  _24
REMARK   11  A    between atoms: _24  and  _25
REMARK   12  A    between atoms: _28  and  _30
REMARK   13  A    between atoms: _30  and  _31
REMARK   14  A    between atoms: _30  and  _33
REMARK   15  A    between atoms: _33  and  _34
REMARK   16  A    between atoms: _37  and  _39
REMARK   17  A    between atoms: _39  and  _40
REMARK   18  A    between atoms: _39  and  _42
REMARK   19  A    between atoms: _42  and  _43
REMARK   20  A    between atoms: _48  and  _50
REMARK   21  A    between atoms: _50  and  _51
REMARK   22  A    between atoms: _50  and  _53
REMARK   23  A    between atoms: _53  and  _54
REMARK   24  A    between atoms: _54  and  _55
REMARK   25  A    between atoms: _55  and  _56
REMARK   26  A    between atoms: _65  and  _67
REMARK   27  A    between atoms: _67  and  _68
REMARK   28  A    between atoms: _70  and  _72
REMARK   29  A    between atoms: _72  and  _73
REMARK   30  A    between atoms: _72  and  _75
REMARK   31  A    between atoms: _75  and  _76
REMARK   32  A    between atoms: _79  and  _81
REMARK   33  A    between atoms: _81  and  _82
REMARK   34  A    between atoms: _81  and  _84
REMARK   35  A    between atoms: _84  and  _85
REMARK   36  A    between atoms: _85  and  _86
REMARK   37  A    between atoms: _86  and  _87
REMARK   38  A    between atoms: _96  and  _98
REMARK   39  A    between atoms: _98  and  _99
REMARK   40  A    between atoms: _98  and  _101
REMARK   41  A    between atoms: _101  and  _102
REMARK   42  A    between atoms: _107  and  _109
REMARK   43  A    between atoms: _109  and  _110
REMARK   44  A    between atoms: _109  and  _112
REMARK   45  A    between atoms: _112  and  _113
REMARK   46  A    between atoms: _113  and  _114
REMARK   47  A    between atoms: _114  and  _115
REMARK   48  A    between atoms: _124  and  _126
REMARK   49  A    between atoms: _126  and  _127
REMARK   50  A    between atoms: _126  and  _129
REMARK   51  A    between atoms: _129  and  _130
REMARK   52  A    between atoms: _140  and  _142
REMARK   53  A    between atoms: _142  and  _143
REMARK   54  A    between atoms: _142  and  _145
REMARK   55  A    between atoms: _145  and  _146
REMARK   56  A    between atoms: _148  and  _150
REMARK   57  A    between atoms: _150  and  _151
REMARK   58  A    between atoms: _153  and  _155
REMARK   59  A    between atoms: _155  and  _156
REMARK   60  A    between atoms: _155  and  _158
REMARK   61  A    between atoms: _161  and  _163
REMARK   62  A    between atoms: _163  and  _164
REMARK   63  A    between atoms: _163  and  _166
REMARK   64  A    between atoms: _166  and  _167
REMARK   65  A    between atoms: _170  and  _172
REMARK   66  A    between atoms: _172  and  _173
REMARK   67  A    between atoms: _172  and  _175
REMARK   68  A    between atoms: _175  and  _176
REMARK   69  A    between atoms: _179  and  _181
REMARK   70  A    between atoms: _181  and  _182
REMARK   71  A    between atoms: _181  and  _184
REMARK   72  A    between atoms: _184  and  _185
REMARK   73  A    between atoms: _188  and  _190
REMARK   74  A    between atoms: _190  and  _191
REMARK   75  A    between atoms: _190  and  _193
REMARK   76  A    between atoms: _193  and  _194
REMARK   77  A    between atoms: _194  and  _195
REMARK   78  A    between atoms: _195  and  _196
REMARK   79  A    between atoms: _205  and  _207
REMARK   80  A    between atoms: _207  and  _208
REMARK   81  A    between atoms: _207  and  _210
REMARK   82  A    between atoms: _210  and  _211
REMARK   83  A    between atoms: _214  and  _216
REMARK   84  A    between atoms: _216  and  _217
REMARK   85  A    between atoms: _216  and  _219
REMARK   86  A    between atoms: _219  and  _220
REMARK   87  A    between atoms: _220  and  _221
REMARK   88  A    between atoms: _224  and  _226
REMARK   89  A    between atoms: _226  and  _227
REMARK   90  A    between atoms: _226  and  _229
REMARK   91  A    between atoms: _229  and  _230
REMARK   92  A    between atoms: _233  and  _235
REMARK   93  A    between atoms: _235  and  _236
REMARK   94  A    between atoms: _238  and  _240
REMARK   95  A    between atoms: _240  and  _241
REMARK   96  A    between atoms: _240  and  _243
REMARK   97  A    between atoms: _243  and  _244
REMARK   98  A    between atoms: _246  and  _248
REMARK   99  A    between atoms: _248  and  _249
REMARK  100  A    between atoms: _252  and  _254
REMARK  101  A    between atoms: _254  and  _255
REMARK  102  A    between atoms: _254  and  _257
REMARK  103  A    between atoms: _257  and  _258
REMARK  104  A    between atoms: _260  and  _262
REMARK  105  A    between atoms: _262  and  _263
REMARK  106  A    between atoms: _262  and  _265
REMARK  107  A    between atoms: _265  and  _266
REMARK  108  A    between atoms: _268  and  _270
REMARK  109  A    between atoms: _270  and  _271
REMARK  110  A    between atoms: _270  and  _273
REMARK  111  A    between atoms: _273  and  _274
REMARK  112  A    between atoms: _279  and  _281
REMARK  113  A    between atoms: _281  and  _282
REMARK  114  A    between atoms: _281  and  _284
REMARK  115  A    between atoms: _284  and  _285
REMARK  116  A    between atoms: _285  and  _286
REMARK  117  A    between atoms: _289  and  _291
REMARK  118  A    between atoms: _291  and  _292
REMARK  119  A    between atoms: _291  and  _294
REMARK  120  A    between atoms: _294  and  _295
REMARK  121  A    between atoms: _295  and  _296
REMARK  122  A    between atoms: _299  and  _301
REMARK  123  A    between atoms: _301  and  _302
REMARK  124  A    between atoms: _301  and  _304
REMARK  125  A    between atoms: _304  and  _305
REMARK  126  A    between atoms: _305  and  _306
REMARK  127  A    between atoms: _306  and  _307
REMARK  128  A    between atoms: _316  and  _318
REMARK  129  A    between atoms: _318  and  _319
REMARK  130  A    between atoms: _318  and  _321
REMARK  131  A    between atoms: _321  and  _322
REMARK  132  A    between atoms: _327  and  _329
REMARK  133  A    between atoms: _329  and  _330
REMARK  134  A    between atoms: _329  and  _332
REMARK  135  A    between atoms: _332  and  _333
REMARK  136  A    between atoms: _336  and  _338
REMARK  137  A    between atoms: _338  and  _339
REMARK  138  A    between atoms: _341  and  _343
REMARK  139  A    between atoms: _343  and  _344
REMARK  140  A    between atoms: _346  and  _348
REMARK  141  A    between atoms: _348  and  _349
REMARK  142  A    between atoms: _348  and  _351
REMARK  143  A    between atoms: _351  and  _352
REMARK  144  A    between atoms: _355  and  _357
REMARK  145  A    between atoms: _357  and  _358
REMARK  146  A    between atoms: _357  and  _360
REMARK  147  A    between atoms: _360  and  _361
REMARK  148  A    between atoms: _361  and  _362
REMARK  149  A    between atoms: _362  and  _363
REMARK  150  A    between atoms: _363  and  _364
REMARK  151  A    between atoms: _368  and  _370
REMARK  152  A    between atoms: _370  and  _371
REMARK  153  A    between atoms: _370  and  _373
REMARK  154  A    between atoms: _373  and  _374
REMARK  155  A    between atoms: _374  and  _375
REMARK  156  A    between atoms: _375  and  _376
REMARK  157  A    between atoms: _385  and  _387
REMARK  158  A    between atoms: _387  and  _388
REMARK  159  A    between atoms: _387  and  _390
REMARK  160  A    between atoms: _390  and  _391
REMARK  161  A    between atoms: _401  and  _403
REMARK  162  A    between atoms: _403  and  _404
REMARK  163  A    between atoms: _403  and  _406
REMARK  164  A    between atoms: _406  and  _407
REMARK  165  A    between atoms: _412  and  _413
REMARK  166  A    between atoms: _415  and  _417
REMARK  167  A    between atoms: _417  and  _418
REMARK  168  A    between atoms: _417  and  _420
REMARK  169  A    between atoms: _420  and  _421
REMARK  170  A    between atoms: _421  and  _422
REMARK  171  A    between atoms: _425  and  _427
REMARK  172  A    between atoms: _427  and  _428
REMARK  173  A    between atoms: _427  and  _430
REMARK  174  A    between atoms: _433  and  _435
REMARK  175  A    between atoms: _435  and  _436
REMARK  176  A    between atoms: _435  and  _438
REMARK  177  A    between atoms: _438  and  _439
REMARK                            x       y       z     vdW  Elec       q    Type
REMARK                         _______ _______ _______ _____ _____    ______ ____
ROOT
ATOM      1  O   HOH     1     -18.851  86.663  14.519  0.00  0.00    +0.000 OA
ENDROOT
TORSDOF 0
REMARK  Name = ../refined-set-2016/4cpy/4cpy_pocket.pdb
REMARK  177 active torsions:
REMARK  status: ('A' for Active; 'I' for Inactive)
REMARK    1  A    between atoms: _1  and  _3
REMARK    2  A    between atoms: _3  and  _4
REMARK    3  A    between atoms: _3  and  _6
REMARK    4  A    between atoms: _6  and  _7
REMARK    5  A    between atoms: _7  and  _8
REMARK    6  A    between atoms: _8  and  _9
REMARK    7  A    between atoms: _18  and  _20
REMARK    8  A    between atoms: _20  and  _21
REMARK    9  A    between atoms: _20  and  _23
REMARK   10  A    between atoms: _23  and  _24
REMARK   11  A    between atoms: _24  and  _25
REMARK   12  A    between atoms: _28  and  _30
REMARK   13  A    between atoms: _30  and  _31
REMARK   14  A    between atoms: _30  and  _33
REMARK   15  A    between atoms: _33  and  _34
REMARK   16  A    between atoms: _37  and  _39
REMARK   17  A    between atoms: _39  and  _40
REMARK   18  A    between atoms: _39  and  _42
REMARK   19  A    between atoms: _42  and  _43
REMARK   20  A    between atoms: _48  and  _50
REMARK   21  A    between atoms: _50  and  _51
REMARK   22  A    between atoms: _50  and  _53
REMARK   23  A    between atoms: _53  and  _54
REMARK   24  A    between atoms: _54  and  _55
REMARK   25  A    between atoms: _55  and  _56
REMARK   26  A    between atoms: _65  and  _67
REMARK   27  A    between atoms: _67  and  _68
REMARK   28  A    between atoms: _70  and  _72
REMARK   29  A    between atoms: _72  and  _73
REMARK   30  A    between atoms: _72  and  _75
REMARK   31  A    between atoms: _75  and  _76
REMARK   32  A    between atoms: _79  and  _81
REMARK   33  A    between atoms: _81  and  _82
REMARK   34  A    between atoms: _81  and  _84
REMARK   35  A    between atoms: _84  and  _85
REMARK   36  A    between atoms: _85  and  _86
REMARK   37  A    between atoms: _86  and  _87
REMARK   38  A    between atoms: _96  and  _98
REMARK   39  A    between atoms: _98  and  _99
REMARK   40  A    between atoms: _98  and  _101
REMARK   41  A    between atoms: _101  and  _102
REMARK   42  A    between atoms: _107  and  _109
REMARK   43  A    between atoms: _109  and  _110
REMARK   44  A    between atoms: _109  and  _112
REMARK   45  A    between atoms: _112  and  _113
REMARK   46  A    between atoms: _113  and  _114
REMARK   47  A    between atoms: _114  and  _115
REMARK   48  A    between atoms: _124  and  _126
REMARK   49  A    between atoms: _126  and  _127
REMARK   50  A    between atoms: _126  and  _129
REMARK   51  A    between atoms: _129  and  _130
REMARK   52  A    between atoms: _140  and  _142
REMARK   53  A    between atoms: _142  and  _143
REMARK   54  A    between atoms: _142  and  _145
REMARK   55  A    between atoms: _145  and  _146
REMARK   56  A    between atoms: _148  and  _150
REMARK   57  A    between atoms: _150  and  _151
REMARK   58  A    between atoms: _153  and  _155
REMARK   59  A    between atoms: _155  and  _156
REMARK   60  A    between atoms: _155  and  _158
REMARK   61  A    between atoms: _161  and  _163
REMARK   62  A    between atoms: _163  and  _164
REMARK   63  A    between atoms: _163  and  _166
REMARK   64  A    between atoms: _166  and  _167
REMARK   65  A    between atoms: _170  and  _172
REMARK   66  A    between atoms: _172  and  _173
REMARK   67  A    between atoms: _172  and  _175
REMARK   68  A    between atoms: _175  and  _176
REMARK   69  A    between atoms: _179  and  _181
REMARK   70  A    between atoms: _181  and  _182
REMARK   71  A    between atoms: _181  and  _184
REMARK   72  A    between atoms: _184  and  _185
REMARK   73  A    between atoms: _188  and  _190
REMARK   74  A    between atoms: _190  and  _191
REMARK   75  A    between atoms: _190  and  _193
REMARK   76  A    between atoms: _193  and  _194
REMARK   77  A    between atoms: _194  and  _195
REMARK   78  A    between atoms: _195  and  _196
REMARK   79  A    between atoms: _205  and  _207
REMARK   80  A    between atoms: _207  and  _208
REMARK   81  A    between atoms: _207  and  _210
REMARK   82  A    between atoms: _210  and  _211
REMARK   83  A    between atoms: _214  and  _216
REMARK   84  A    between atoms: _216  and  _217
REMARK   85  A    between atoms: _216  and  _219
REMARK   86  A    between atoms: _219  and  _220
REMARK   87  A    between atoms: _220  and  _221
REMARK   88  A    between atoms: _224  and  _226
REMARK   89  A    between atoms: _226  and  _227
REMARK   90  A    between atoms: _226  and  _229
REMARK   91  A    between atoms: _229  and  _230
REMARK   92  A    between atoms: _233  and  _235
REMARK   93  A    between atoms: _235  and  _236
REMARK   94  A    between atoms: _238  and  _240
REMARK   95  A    between atoms: _240  and  _241
REMARK   96  A    between atoms: _240  and  _243
REMARK   97  A    between atoms: _243  and  _244
REMARK   98  A    between atoms: _246  and  _248
REMARK   99  A    between atoms: _248  and  _249
REMARK  100  A    between atoms: _252  and  _254
REMARK  101  A    between atoms: _254  and  _255
REMARK  102  A    between atoms: _254  and  _257
REMARK  103  A    between atoms: _257  and  _258
REMARK  104  A    between atoms: _260  and  _262
REMARK  105  A    between atoms: _262  and  _263
REMARK  106  A    between atoms: _262  and  _265
REMARK  107  A    between atoms: _265  and  _266
REMARK  108  A    between atoms: _268  and  _270
REMARK  109  A    between atoms: _270  and  _271
REMARK  110  A    between atoms: _270  and  _273
REMARK  111  A    between atoms: _273  and  _274
REMARK  112  A    between atoms: _279  and  _281
REMARK  113  A    between atoms: _281  and  _282
REMARK  114  A    between atoms: _281  and  _284
REMARK  115  A    between atoms: _284  and  _285
REMARK  116  A    between atoms: _285  and  _286
REMARK  117  A    between atoms: _289  and  _291
REMARK  118  A    between atoms: _291  and  _292
REMARK  119  A    between atoms: _291  and  _294
REMARK  120  A    between atoms: _294  and  _295
REMARK  121  A    between atoms: _295  and  _296
REMARK  122  A    between atoms: _299  and  _301
REMARK  123  A    between atoms: _301  and  _302
REMARK  124  A    between atoms: _301  and  _304
REMARK  125  A    between atoms: _304  and  _305
REMARK  126  A    between atoms: _305  and  _306
REMARK  127  A    between atoms: _306  and  _307
REMARK  128  A    between atoms: _316  and  _318
REMARK  129  A    between atoms: _318  and  _319
REMARK  130  A    between atoms: _318  and  _321
REMARK  131  A    between atoms: _321  and  _322
REMARK  132  A    between atoms: _327  and  _329
REMARK  133  A    between atoms: _329  and  _330
REMARK  134  A    between atoms: _329  and  _332
REMARK  135  A    between atoms: _332  and  _333
REMARK  136  A    between atoms: _336  and  _338
REMARK  137  A    between atoms: _338  and  _339
REMARK  138  A    between atoms: _341  and  _343
REMARK  139  A    between atoms: _343  and  _344
REMARK  140  A    between atoms: _346  and  _348
REMARK  141  A    between atoms: _348  and  _349
REMARK  142  A    between atoms: _348  and  _351
REMARK  143  A    between atoms: _351  and  _352
REMARK  144  A    between atoms: _355  and  _357
REMARK  145  A    between atoms: _357  and  _358
REMARK  146  A    between atoms: _357  and  _360
REMARK  147  A    between atoms: _360  and  _361
REMARK  148  A    between atoms: _361  and  _362
REMARK  149  A    between atoms: _362  and  _363
REMARK  150  A    between atoms: _363  and  _364
REMARK  151  A    between atoms: _368  and  _370
REMARK  152  A    between atoms: _370  and  _371
REMARK  153  A    between atoms: _370  and  _373
REMARK  154  A    between atoms: _373  and  _374
REMARK  155  A    between atoms: _374  and  _375
REMARK  156  A    between atoms: _375  and  _376
REMARK  157  A    between atoms: _385  and  _387
REMARK  158  A    between atoms: _387  and  _388
REMARK  159  A    between atoms: _387  and  _390
REMARK  160  A    between atoms: _390  and  _391
REMARK  161  A    between atoms: _401  and  _403
REMARK  162  A    between atoms: _403  and  _404
REMARK  163  A    between atoms: _403  and  _406
REMARK  164  A    between atoms: _406  and  _407
REMARK  165  A    between atoms: _412  and  _413
REMARK  166  A    between atoms: _415  and  _417
REMARK  167  A    between atoms: _417  and  _418
REMARK  168  A    between atoms: _417  and  _420
REMARK  169  A    between atoms: _420  and  _421
REMARK  170  A    between atoms: _421  and  _422
REMARK  171  A    between atoms: _425  and  _427
REMARK  172  A    between atoms: _427  and  _428
REMARK  173  A    between atoms: _427  and  _430
REMARK  174  A    between atoms: _433  and  _435
REMARK  175  A    between atoms: _435  and  _436
REMARK  176  A    between atoms: _435  and  _438
REMARK  177  A    between atoms: _438  and  _439
REMARK                            x       y       z     vdW  Elec       q    Type
REMARK                         _______ _______ _______ _____ _____    ______ ____
ROOT
ATOM      1  O   HOH     1     -12.832  95.737  14.951  0.00  0.00    +0.000 OA
ENDROOT
TORSDOF 0
REMARK  Name = ../refined-set-2016/4cpy/4cpy_pocket.pdb
REMARK  177 active torsions:
REMARK  status: ('A' for Active; 'I' for Inactive)
REMARK    1  A    between atoms: _1  and  _3
REMARK    2  A    between atoms: _3  and  _4
REMARK    3  A    between atoms: _3  and  _6
REMARK    4  A    between atoms: _6  and  _7
REMARK    5  A    between atoms: _7  and  _8
REMARK    6  A    between atoms: _8  and  _9
REMARK    7  A    between atoms: _18  and  _20
REMARK    8  A    between atoms: _20  and  _21
REMARK    9  A    between atoms: _20  and  _23
REMARK   10  A    between atoms: _23  and  _24
REMARK   11  A    between atoms: _24  and  _25
REMARK   12  A    between atoms: _28  and  _30
REMARK   13  A    between atoms: _30  and  _31
REMARK   14  A    between atoms: _30  and  _33
REMARK   15  A    between atoms: _33  and  _34
REMARK   16  A    between atoms: _37  and  _39
REMARK   17  A    between atoms: _39  and  _40
REMARK   18  A    between atoms: _39  and  _42
REMARK   19  A    between atoms: _42  and  _43
REMARK   20  A    between atoms: _48  and  _50
REMARK   21  A    between atoms: _50  and  _51
REMARK   22  A    between atoms: _50  and  _53
REMARK   23  A    between atoms: _53  and  _54
REMARK   24  A    between atoms: _54  and  _55
REMARK   25  A    between atoms: _55  and  _56
REMARK   26  A    between atoms: _65  and  _67
REMARK   27  A    between atoms: _67  and  _68
REMARK   28  A    between atoms: _70  and  _72
REMARK   29  A    between atoms: _72  and  _73
REMARK   30  A    between atoms: _72  and  _75
REMARK   31  A    between atoms: _75  and  _76
REMARK   32  A    between atoms: _79  and  _81
REMARK   33  A    between atoms: _81  and  _82
REMARK   34  A    between atoms: _81  and  _84
REMARK   35  A    between atoms: _84  and  _85
REMARK   36  A    between atoms: _85  and  _86
REMARK   37  A    between atoms: _86  and  _87
REMARK   38  A    between atoms: _96  and  _98
REMARK   39  A    between atoms: _98  and  _99
REMARK   40  A    between atoms: _98  and  _101
REMARK   41  A    between atoms: _101  and  _102
REMARK   42  A    between atoms: _107  and  _109
REMARK   43  A    between atoms: _109  and  _110
REMARK   44  A    between atoms: _109  and  _112
REMARK   45  A    between atoms: _112  and  _113
REMARK   46  A    between atoms: _113  and  _114
REMARK   47  A    between atoms: _114  and  _115
REMARK   48  A    between atoms: _124  and  _126
REMARK   49  A    between atoms: _126  and  _127
REMARK   50  A    between atoms: _126  and  _129
REMARK   51  A    between atoms: _129  and  _130
REMARK   52  A    between atoms: _140  and  _142
REMARK   53  A    between atoms: _142  and  _143
REMARK   54  A    between atoms: _142  and  _145
REMARK   55  A    between atoms: _145  and  _146
REMARK   56  A    between atoms: _148  and  _150
REMARK   57  A    between atoms: _150  and  _151
REMARK   58  A    between atoms: _153  and  _155
REMARK   59  A    between atoms: _155  and  _156
REMARK   60  A    between atoms: _155  and  _158
REMARK   61  A    between atoms: _161  and  _163
REMARK   62  A    between atoms: _163  and  _164
REMARK   63  A    between atoms: _163  and  _166
REMARK   64  A    between atoms: _166  and  _167
REMARK   65  A    between atoms: _170  and  _172
REMARK   66  A    between atoms: _172  and  _173
REMARK   67  A    between atoms: _172  and  _175
REMARK   68  A    between atoms: _175  and  _176
REMARK   69  A    between atoms: _179  and  _181
REMARK   70  A    between atoms: _181  and  _182
REMARK   71  A    between atoms: _181  and  _184
REMARK   72  A    between atoms: _184  and  _185
REMARK   73  A    between atoms: _188  and  _190
REMARK   74  A    between atoms: _190  and  _191
REMARK   75  A    between atoms: _190  and  _193
REMARK   76  A    between atoms: _193  and  _194
REMARK   77  A    between atoms: _194  and  _195
REMARK   78  A    between atoms: _195  and  _196
REMARK   79  A    between atoms: _205  and  _207
REMARK   80  A    between atoms: _207  and  _208
REMARK   81  A    between atoms: _207  and  _210
REMARK   82  A    between atoms: _210  and  _211
REMARK   83  A    between atoms: _214  and  _216
REMARK   84  A    between atoms: _216  and  _217
REMARK   85  A    between atoms: _216  and  _219
REMARK   86  A    between atoms: _219  and  _220
REMARK   87  A    between atoms: _220  and  _221
REMARK   88  A    between atoms: _224  and  _226
REMARK   89  A    between atoms: _226  and  _227
REMARK   90  A    between atoms: _226  and  _229
REMARK   91  A    between atoms: _229  and  _230
REMARK   92  A    between atoms: _233  and  _235
REMARK   93  A    between atoms: _235  and  _236
REMARK   94  A    between atoms: _238  and  _240
REMARK   95  A    between atoms: _240  and  _241
REMARK   96  A    between atoms: _240  and  _243
REMARK   97  A    between atoms: _243  and  _244
REMARK   98  A    between atoms: _246  and  _248
REMARK   99  A    between atoms: _248  and  _249
REMARK  100  A    between atoms: _252  and  _254
REMARK  101  A    between atoms: _254  and  _255
REMARK  102  A    between atoms: _254  and  _257
REMARK  103  A    between atoms: _257  and  _258
REMARK  104  A    between atoms: _260  and  _262
REMARK  105  A    between atoms: _262  and  _263
REMARK  106  A    between atoms: _262  and  _265
REMARK  107  A    between atoms: _265  and  _266
REMARK  108  A    between atoms: _268  and  _270
REMARK  109  A    between atoms: _270  and  _271
REMARK  110  A    between atoms: _270  and  _273
REMARK  111  A    between atoms: _273  and  _274
REMARK  112  A    between atoms: _279  and  _281
REMARK  113  A    between atoms: _281  and  _282
REMARK  114  A    between atoms: _281  and  _284
REMARK  115  A    between atoms: _284  and  _285
REMARK  116  A    between atoms: _285  and  _286
REMARK  117  A    between atoms: _289  and  _291
REMARK  118  A    between atoms: _291  and  _292
REMARK  119  A    between atoms: _291  and  _294
REMARK  120  A    between atoms: _294  and  _295
REMARK  121  A    between atoms: _295  and  _296
REMARK  122  A    between atoms: _299  and  _301
REMARK  123  A    between atoms: _301  and  _302
REMARK  124  A    between atoms: _301  and  _304
REMARK  125  A    between atoms: _304  and  _305
REMARK  126  A    between atoms: _305  and  _306
REMARK  127  A    between atoms: _306  and  _307
REMARK  128  A    between atoms: _316  and  _318
REMARK  129  A    between atoms: _318  and  _319
REMARK  130  A    between atoms: _318  and  _321
REMARK  131  A    between atoms: _321  and  _322
REMARK  132  A    between atoms: _327  and  _329
REMARK  133  A    between atoms: _329  and  _330
REMARK  134  A    between atoms: _329  and  _332
REMARK  135  A    between atoms: _332  and  _333
REMARK  136  A    between atoms: _336  and  _338
REMARK  137  A    between atoms: _338  and  _339
REMARK  138  A    between atoms: _341  and  _343
REMARK  139  A    between atoms: _343  and  _344
REMARK  140  A    between atoms: _346  and  _348
REMARK  141  A    between atoms: _348  and  _349
REMARK  142  A    between atoms: _348  and  _351
REMARK  143  A    between atoms: _351  and  _352
REMARK  144  A    between atoms: _355  and  _357
REMARK  145  A    between atoms: _357  and  _358
REMARK  146  A    between atoms: _357  and  _360
REMARK  147  A    between atoms: _360  and  _361
REMARK  148  A    between atoms: _361  and  _362
REMARK  149  A    between atoms: _362  and  _363
REMARK  150  A    between atoms: _363  and  _364
REMARK  151  A    between atoms: _368  and  _370
REMARK  152  A    between atoms: _370  and  _371
REMARK  153  A    between atoms: _370  and  _373
REMARK  154  A    between atoms: _373  and  _374
REMARK  155  A    between atoms: _374  and  _375
REMARK  156  A    between atoms: _375  and  _376
REMARK  157  A    between atoms: _385  and  _387
REMARK  158  A    between atoms: _387  and  _388
REMARK  159  A    between atoms: _387  and  _390
REMARK  160  A    between atoms: _390  and  _391
REMARK  161  A    between atoms: _401  and  _403
REMARK  162  A    between atoms: _403  and  _404
REMARK  163  A    between atoms: _403  and  _406
REMARK  164  A    between atoms: _406  and  _407
REMARK  165  A    between atoms: _412  and  _413
REMARK  166  A    between atoms: _415  and  _417
REMARK  167  A    between atoms: _417  and  _418
REMARK  168  A    between atoms: _417  and  _420
REMARK  169  A    between atoms: _420  and  _421
REMARK  170  A    between atoms: _421  and  _422
REMARK  171  A    between atoms: _425  and  _427
REMARK  172  A    between atoms: _427  and  _428
REMARK  173  A    between atoms: _427  and  _430
REMARK  174  A    between atoms: _433  and  _435
REMARK  175  A    between atoms: _435  and  _436
REMARK  176  A    between atoms: _435  and  _438
REMARK  177  A    between atoms: _438  and  _439
REMARK                            x       y       z     vdW  Elec       q    Type
REMARK                         _______ _______ _______ _____ _____    ______ ____
ROOT
ATOM      1  O   HOH     1     -15.080  96.675   6.874  0.00  0.00    +0.000 OA
ENDROOT
TORSDOF 0
REMARK  Name = ../refined-set-2016/4cpy/4cpy_pocket.pdb
REMARK  177 active torsions:
REMARK  status: ('A' for Active; 'I' for Inactive)
REMARK    1  A    between atoms: _1  and  _3
REMARK    2  A    between atoms: _3  and  _4
REMARK    3  A    between atoms: _3  and  _6
REMARK    4  A    between atoms: _6  and  _7
REMARK    5  A    between atoms: _7  and  _8
REMARK    6  A    between atoms: _8  and  _9
REMARK    7  A    between atoms: _18  and  _20
REMARK    8  A    between atoms: _20  and  _21
REMARK    9  A    between atoms: _20  and  _23
REMARK   10  A    between atoms: _23  and  _24
REMARK   11  A    between atoms: _24  and  _25
REMARK   12  A    between atoms: _28  and  _30
REMARK   13  A    between atoms: _30  and  _31
REMARK   14  A    between atoms: _30  and  _33
REMARK   15  A    between atoms: _33  and  _34
REMARK   16  A    between atoms: _37  and  _39
REMARK   17  A    between atoms: _39  and  _40
REMARK   18  A    between atoms: _39  and  _42
REMARK   19  A    between atoms: _42  and  _43
REMARK   20  A    between atoms: _48  and  _50
REMARK   21  A    between atoms: _50  and  _51
REMARK   22  A    between atoms: _50  and  _53
REMARK   23  A    between atoms: _53  and  _54
REMARK   24  A    between atoms: _54  and  _55
REMARK   25  A    between atoms: _55  and  _56
REMARK   26  A    between atoms: _65  and  _67
REMARK   27  A    between atoms: _67  and  _68
REMARK   28  A    between atoms: _70  and  _72
REMARK   29  A    between atoms: _72  and  _73
REMARK   30  A    between atoms: _72  and  _75
REMARK   31  A    between atoms: _75  and  _76
REMARK   32  A    between atoms: _79  and  _81
REMARK   33  A    between atoms: _81  and  _82
REMARK   34  A    between atoms: _81  and  _84
REMARK   35  A    between atoms: _84  and  _85
REMARK   36  A    between atoms: _85  and  _86
REMARK   37  A    between atoms: _86  and  _87
REMARK   38  A    between atoms: _96  and  _98
REMARK   39  A    between atoms: _98  and  _99
REMARK   40  A    between atoms: _98  and  _101
REMARK   41  A    between atoms: _101  and  _102
REMARK   42  A    between atoms: _107  and  _109
REMARK   43  A    between atoms: _109  and  _110
REMARK   44  A    between atoms: _109  and  _112
REMARK   45  A    between atoms: _112  and  _113
REMARK   46  A    between atoms: _113  and  _114
REMARK   47  A    between atoms: _114  and  _115
REMARK   48  A    between atoms: _124  and  _126
REMARK   49  A    between atoms: _126  and  _127
REMARK   50  A    between atoms: _126  and  _129
REMARK   51  A    between atoms: _129  and  _130
REMARK   52  A    between atoms: _140  and  _142
REMARK   53  A    between atoms: _142  and  _143
REMARK   54  A    between atoms: _142  and  _145
REMARK   55  A    between atoms: _145  and  _146
REMARK   56  A    between atoms: _148  and  _150
REMARK   57  A    between atoms: _150  and  _151
REMARK   58  A    between atoms: _153  and  _155
REMARK   59  A    between atoms: _155  and  _156
REMARK   60  A    between atoms: _155  and  _158
REMARK   61  A    between atoms: _161  and  _163
REMARK   62  A    between atoms: _163  and  _164
REMARK   63  A    between atoms: _163  and  _166
REMARK   64  A    between atoms: _166  and  _167
REMARK   65  A    between atoms: _170  and  _172
REMARK   66  A    between atoms: _172  and  _173
REMARK   67  A    between atoms: _172  and  _175
REMARK   68  A    between atoms: _175  and  _176
REMARK   69  A    between atoms: _179  and  _181
REMARK   70  A    between atoms: _181  and  _182
REMARK   71  A    between atoms: _181  and  _184
REMARK   72  A    between atoms: _184  and  _185
REMARK   73  A    between atoms: _188  and  _190
REMARK   74  A    between atoms: _190  and  _191
REMARK   75  A    between atoms: _190  and  _193
REMARK   76  A    between atoms: _193  and  _194
REMARK   77  A    between atoms: _194  and  _195
REMARK   78  A    between atoms: _195  and  _196
REMARK   79  A    between atoms: _205  and  _207
REMARK   80  A    between atoms: _207  and  _208
REMARK   81  A    between atoms: _207  and  _210
REMARK   82  A    between atoms: _210  and  _211
REMARK   83  A    between atoms: _214  and  _216
REMARK   84  A    between atoms: _216  and  _217
REMARK   85  A    between atoms: _216  and  _219
REMARK   86  A    between atoms: _219  and  _220
REMARK   87  A    between atoms: _220  and  _221
REMARK   88  A    between atoms: _224  and  _226
REMARK   89  A    between atoms: _226  and  _227
REMARK   90  A    between atoms: _226  and  _229
REMARK   91  A    between atoms: _229  and  _230
REMARK   92  A    between atoms: _233  and  _235
REMARK   93  A    between atoms: _235  and  _236
REMARK   94  A    between atoms: _238  and  _240
REMARK   95  A    between atoms: _240  and  _241
REMARK   96  A    between atoms: _240  and  _243
REMARK   97  A    between atoms: _243  and  _244
REMARK   98  A    between atoms: _246  and  _248
REMARK   99  A    between atoms: _248  and  _249
REMARK  100  A    between atoms: _252  and  _254
REMARK  101  A    between atoms: _254  and  _255
REMARK  102  A    between atoms: _254  and  _257
REMARK  103  A    between atoms: _257  and  _258
REMARK  104  A    between atoms: _260  and  _262
REMARK  105  A    between atoms: _262  and  _263
REMARK  106  A    between atoms: _262  and  _265
REMARK  107  A    between atoms: _265  and  _266
REMARK  108  A    between atoms: _268  and  _270
REMARK  109  A    between atoms: _270  and  _271
REMARK  110  A    between atoms: _270  and  _273
REMARK  111  A    between atoms: _273  and  _274
REMARK  112  A    between atoms: _279  and  _281
REMARK  113  A    between atoms: _281  and  _282
REMARK  114  A    between atoms: _281  and  _284
REMARK  115  A    between atoms: _284  and  _285
REMARK  116  A    between atoms: _285  and  _286
REMARK  117  A    between atoms: _289  and  _291
REMARK  118  A    between atoms: _291  and  _292
REMARK  119  A    between atoms: _291  and  _294
REMARK  120  A    between atoms: _294  and  _295
REMARK  121  A    between atoms: _295  and  _296
REMARK  122  A    between atoms: _299  and  _301
REMARK  123  A    between atoms: _301  and  _302
REMARK  124  A    between atoms: _301  and  _304
REMARK  125  A    between atoms: _304  and  _305
REMARK  126  A    between atoms: _305  and  _306
REMARK  127  A    between atoms: _306  and  _307
REMARK  128  A    between atoms: _316  and  _318
REMARK  129  A    between atoms: _318  and  _319
REMARK  130  A    between atoms: _318  and  _321
REMARK  131  A    between atoms: _321  and  _322
REMARK  132  A    between atoms: _327  and  _329
REMARK  133  A    between atoms: _329  and  _330
REMARK  134  A    between atoms: _329  and  _332
REMARK  135  A    between atoms: _332  and  _333
REMARK  136  A    between atoms: _336  and  _338
REMARK  137  A    between atoms: _338  and  _339
REMARK  138  A    between atoms: _341  and  _343
REMARK  139  A    between atoms: _343  and  _344
REMARK  140  A    between atoms: _346  and  _348
REMARK  141  A    between atoms: _348  and  _349
REMARK  142  A    between atoms: _348  and  _351
REMARK  143  A    between atoms: _351  and  _352
REMARK  144  A    between atoms: _355  and  _357
REMARK  145  A    between atoms: _357  and  _358
REMARK  146  A    between atoms: _357  and  _360
REMARK  147  A    between atoms: _360  and  _361
REMARK  148  A    between atoms: _361  and  _362
REMARK  149  A    between atoms: _362  and  _363
REMARK  150  A    between atoms: _363  and  _364
REMARK  151  A    between atoms: _368  and  _370
REMARK  152  A    between atoms: _370  and  _371
REMARK  153  A    between atoms: _370  and  _373
REMARK  154  A    between atoms: _373  and  _374
REMARK  155  A    between atoms: _374  and  _375
REMARK  156  A    between atoms: _375  and  _376
REMARK  157  A    between atoms: _385  and  _387
REMARK  158  A    between atoms: _387  and  _388
REMARK  159  A    between atoms: _387  and  _390
REMARK  160  A    between atoms: _390  and  _391
REMARK  161  A    between atoms: _401  and  _403
REMARK  162  A    between atoms: _403  and  _404
REMARK  163  A    between atoms: _403  and  _406
REMARK  164  A    between atoms: _406  and  _407
REMARK  165  A    between atoms: _412  and  _413
REMARK  166  A    between atoms: _415  and  _417
REMARK  167  A    between atoms: _417  and  _418
REMARK  168  A    between atoms: _417  and  _420
REMARK  169  A    between atoms: _420  and  _421
REMARK  170  A    between atoms: _421  and  _422
REMARK  171  A    between atoms: _425  and  _427
REMARK  172  A    between atoms: _427  and  _428
REMARK  173  A    between atoms: _427  and  _430
REMARK  174  A    between atoms: _433  and  _435
REMARK  175  A    between atoms: _435  and  _436
REMARK  176  A    between atoms: _435  and  _438
REMARK  177  A    between atoms: _438  and  _439
REMARK                            x       y       z     vdW  Elec       q    Type
REMARK                         _______ _______ _______ _____ _____    ______ ____
ROOT
ATOM      1  O   HOH     1     -23.782  92.063   4.463  0.00  0.00    +0.000 OA
ENDROOT
TORSDOF 0
REMARK  Name = ../refined-set-2016/4cpy/4cpy_pocket.pdb
REMARK  177 active torsions:
REMARK  status: ('A' for Active; 'I' for Inactive)
REMARK    1  A    between atoms: _1  and  _3
REMARK    2  A    between atoms: _3  and  _4
REMARK    3  A    between atoms: _3  and  _6
REMARK    4  A    between atoms: _6  and  _7
REMARK    5  A    between atoms: _7  and  _8
REMARK    6  A    between atoms: _8  and  _9
REMARK    7  A    between atoms: _18  and  _20
REMARK    8  A    between atoms: _20  and  _21
REMARK    9  A    between atoms: _20  and  _23
REMARK   10  A    between atoms: _23  and  _24
REMARK   11  A    between atoms: _24  and  _25
REMARK   12  A    between atoms: _28  and  _30
REMARK   13  A    between atoms: _30  and  _31
REMARK   14  A    between atoms: _30  and  _33
REMARK   15  A    between atoms: _33  and  _34
REMARK   16  A    between atoms: _37  and  _39
REMARK   17  A    between atoms: _39  and  _40
REMARK   18  A    between atoms: _39  and  _42
REMARK   19  A    between atoms: _42  and  _43
REMARK   20  A    between atoms: _48  and  _50
REMARK   21  A    between atoms: _50  and  _51
REMARK   22  A    between atoms: _50  and  _53
REMARK   23  A    between atoms: _53  and  _54
REMARK   24  A    between atoms: _54  and  _55
REMARK   25  A    between atoms: _55  and  _56
REMARK   26  A    between atoms: _65  and  _67
REMARK   27  A    between atoms: _67  and  _68
REMARK   28  A    between atoms: _70  and  _72
REMARK   29  A    between atoms: _72  and  _73
REMARK   30  A    between atoms: _72  and  _75
REMARK   31  A    between atoms: _75  and  _76
REMARK   32  A    between atoms: _79  and  _81
REMARK   33  A    between atoms: _81  and  _82
REMARK   34  A    between atoms: _81  and  _84
REMARK   35  A    between atoms: _84  and  _85
REMARK   36  A    between atoms: _85  and  _86
REMARK   37  A    between atoms: _86  and  _87
REMARK   38  A    between atoms: _96  and  _98
REMARK   39  A    between atoms: _98  and  _99
REMARK   40  A    between atoms: _98  and  _101
REMARK   41  A    between atoms: _101  and  _102
REMARK   42  A    between atoms: _107  and  _109
REMARK   43  A    between atoms: _109  and  _110
REMARK   44  A    between atoms: _109  and  _112
REMARK   45  A    between atoms: _112  and  _113
REMARK   46  A    between atoms: _113  and  _114
REMARK   47  A    between atoms: _114  and  _115
REMARK   48  A    between atoms: _124  and  _126
REMARK   49  A    between atoms: _126  and  _127
REMARK   50  A    between atoms: _126  and  _129
REMARK   51  A    between atoms: _129  and  _130
REMARK   52  A    between atoms: _140  and  _142
REMARK   53  A    between atoms: _142  and  _143
REMARK   54  A    between atoms: _142  and  _145
REMARK   55  A    between atoms: _145  and  _146
REMARK   56  A    between atoms: _148  and  _150
REMARK   57  A    between atoms: _150  and  _151
REMARK   58  A    between atoms: _153  and  _155
REMARK   59  A    between atoms: _155  and  _156
REMARK   60  A    between atoms: _155  and  _158
REMARK   61  A    between atoms: _161  and  _163
REMARK   62  A    between atoms: _163  and  _164
REMARK   63  A    between atoms: _163  and  _166
REMARK   64  A    between atoms: _166  and  _167
REMARK   65  A    between atoms: _170  and  _172
REMARK   66  A    between atoms: _172  and  _173
REMARK   67  A    between atoms: _172  and  _175
REMARK   68  A    between atoms: _175  and  _176
REMARK   69  A    between atoms: _179  and  _181
REMARK   70  A    between atoms: _181  and  _182
REMARK   71  A    between atoms: _181  and  _184
REMARK   72  A    between atoms: _184  and  _185
REMARK   73  A    between atoms: _188  and  _190
REMARK   74  A    between atoms: _190  and  _191
REMARK   75  A    between atoms: _190  and  _193
REMARK   76  A    between atoms: _193  and  _194
REMARK   77  A    between atoms: _194  and  _195
REMARK   78  A    between atoms: _195  and  _196
REMARK   79  A    between atoms: _205  and  _207
REMARK   80  A    between atoms: _207  and  _208
REMARK   81  A    between atoms: _207  and  _210
REMARK   82  A    between atoms: _210  and  _211
REMARK   83  A    between atoms: _214  and  _216
REMARK   84  A    between atoms: _216  and  _217
REMARK   85  A    between atoms: _216  and  _219
REMARK   86  A    between atoms: _219  and  _220
REMARK   87  A    between atoms: _220  and  _221
REMARK   88  A    between atoms: _224  and  _226
REMARK   89  A    between atoms: _226  and  _227
REMARK   90  A    between atoms: _226  and  _229
REMARK   91  A    between atoms: _229  and  _230
REMARK   92  A    between atoms: _233  and  _235
REMARK   93  A    between atoms: _235  and  _236
REMARK   94  A    between atoms: _238  and  _240
REMARK   95  A    between atoms: _240  and  _241
REMARK   96  A    between atoms: _240  and  _243
REMARK   97  A    between atoms: _243  and  _244
REMARK   98  A    between atoms: _246  and  _248
REMARK   99  A    between atoms: _248  and  _249
REMARK  100  A    between atoms: _252  and  _254
REMARK  101  A    between atoms: _254  and  _255
REMARK  102  A    between atoms: _254  and  _257
REMARK  103  A    between atoms: _257  and  _258
REMARK  104  A    between atoms: _260  and  _262
REMARK  105  A    between atoms: _262  and  _263
REMARK  106  A    between atoms: _262  and  _265
REMARK  107  A    between atoms: _265  and  _266
REMARK  108  A    between atoms: _268  and  _270
REMARK  109  A    between atoms: _270  and  _271
REMARK  110  A    between atoms: _270  and  _273
REMARK  111  A    between atoms: _273  and  _274
REMARK  112  A    between atoms: _279  and  _281
REMARK  113  A    between atoms: _281  and  _282
REMARK  114  A    between atoms: _281  and  _284
REMARK  115  A    between atoms: _284  and  _285
REMARK  116  A    between atoms: _285  and  _286
REMARK  117  A    between atoms: _289  and  _291
REMARK  118  A    between atoms: _291  and  _292
REMARK  119  A    between atoms: _291  and  _294
REMARK  120  A    between atoms: _294  and  _295
REMARK  121  A    between atoms: _295  and  _296
REMARK  122  A    between atoms: _299  and  _301
REMARK  123  A    between atoms: _301  and  _302
REMARK  124  A    between atoms: _301  and  _304
REMARK  125  A    between atoms: _304  and  _305
REMARK  126  A    between atoms: _305  and  _306
REMARK  127  A    between atoms: _306  and  _307
REMARK  128  A    between atoms: _316  and  _318
REMARK  129  A    between atoms: _318  and  _319
REMARK  130  A    between atoms: _318  and  _321
REMARK  131  A    between atoms: _321  and  _322
REMARK  132  A    between atoms: _327  and  _329
REMARK  133  A    between atoms: _329  and  _330
REMARK  134  A    between atoms: _329  and  _332
REMARK  135  A    between atoms: _332  and  _333
REMARK  136  A    between atoms: _336  and  _338
REMARK  137  A    between atoms: _338  and  _339
REMARK  138  A    between atoms: _341  and  _343
REMARK  139  A    between atoms: _343  and  _344
REMARK  140  A    between atoms: _346  and  _348
REMARK  141  A    between atoms: _348  and  _349
REMARK  142  A    between atoms: _348  and  _351
REMARK  143  A    between atoms: _351  and  _352
REMARK  144  A    between atoms: _355  and  _357
REMARK  145  A    between atoms: _357  and  _358
REMARK  146  A    between atoms: _357  and  _360
REMARK  147  A    between atoms: _360  and  _361
REMARK  148  A    between atoms: _361  and  _362
REMARK  149  A    between atoms: _362  and  _363
REMARK  150  A    between atoms: _363  and  _364
REMARK  151  A    between atoms: _368  and  _370
REMARK  152  A    between atoms: _370  and  _371
REMARK  153  A    between atoms: _370  and  _373
REMARK  154  A    between atoms: _373  and  _374
REMARK  155  A    between atoms: _374  and  _375
REMARK  156  A    between atoms: _375  and  _376
REMARK  157  A    between atoms: _385  and  _387
REMARK  158  A    between atoms: _387  and  _388
REMARK  159  A    between atoms: _387  and  _390
REMARK  160  A    between atoms: _390  and  _391
REMARK  161  A    between atoms: _401  and  _403
REMARK  162  A    between atoms: _403  and  _404
REMARK  163  A    between atoms: _403  and  _406
REMARK  164  A    between atoms: _406  and  _407
REMARK  165  A    between atoms: _412  and  _413
REMARK  166  A    between atoms: _415  and  _417
REMARK  167  A    between atoms: _417  and  _418
REMARK  168  A    between atoms: _417  and  _420
REMARK  169  A    between atoms: _420  and  _421
REMARK  170  A    between atoms: _421  and  _422
REMARK  171  A    between atoms: _425  and  _427
REMARK  172  A    between atoms: _427  and  _428
REMARK  173  A    between atoms: _427  and  _430
REMARK  174  A    between atoms: _433  and  _435
REMARK  175  A    between atoms: _435  and  _436
REMARK  176  A    between atoms: _435  and  _438
REMARK  177  A    between atoms: _438  and  _439
REMARK                            x       y       z     vdW  Elec       q    Type
REMARK                         _______ _______ _______ _____ _____    ______ ____
ROOT
ATOM      1  O   HOH     1     -21.767  93.876   5.644  0.00  0.00    +0.000 OA
ENDROOT
TORSDOF 0
REMARK  Name = ../refined-set-2016/4cpy/4cpy_pocket.pdb
REMARK  177 active torsions:
REMARK  status: ('A' for Active; 'I' for Inactive)
REMARK    1  A    between atoms: _1  and  _3
REMARK    2  A    between atoms: _3  and  _4
REMARK    3  A    between atoms: _3  and  _6
REMARK    4  A    between atoms: _6  and  _7
REMARK    5  A    between atoms: _7  and  _8
REMARK    6  A    between atoms: _8  and  _9
REMARK    7  A    between atoms: _18  and  _20
REMARK    8  A    between atoms: _20  and  _21
REMARK    9  A    between atoms: _20  and  _23
REMARK   10  A    between atoms: _23  and  _24
REMARK   11  A    between atoms: _24  and  _25
REMARK   12  A    between atoms: _28  and  _30
REMARK   13  A    between atoms: _30  and  _31
REMARK   14  A    between atoms: _30  and  _33
REMARK   15  A    between atoms: _33  and  _34
REMARK   16  A    between atoms: _37  and  _39
REMARK   17  A    between atoms: _39  and  _40
REMARK   18  A    between atoms: _39  and  _42
REMARK   19  A    between atoms: _42  and  _43
REMARK   20  A    between atoms: _48  and  _50
REMARK   21  A    between atoms: _50  and  _51
REMARK   22  A    between atoms: _50  and  _53
REMARK   23  A    between atoms: _53  and  _54
REMARK   24  A    between atoms: _54  and  _55
REMARK   25  A    between atoms: _55  and  _56
REMARK   26  A    between atoms: _65  and  _67
REMARK   27  A    between atoms: _67  and  _68
REMARK   28  A    between atoms: _70  and  _72
REMARK   29  A    between atoms: _72  and  _73
REMARK   30  A    between atoms: _72  and  _75
REMARK   31  A    between atoms: _75  and  _76
REMARK   32  A    between atoms: _79  and  _81
REMARK   33  A    between atoms: _81  and  _82
REMARK   34  A    between atoms: _81  and  _84
REMARK   35  A    between atoms: _84  and  _85
REMARK   36  A    between atoms: _85  and  _86
REMARK   37  A    between atoms: _86  and  _87
REMARK   38  A    between atoms: _96  and  _98
REMARK   39  A    between atoms: _98  and  _99
REMARK   40  A    between atoms: _98  and  _101
REMARK   41  A    between atoms: _101  and  _102
REMARK   42  A    between atoms: _107  and  _109
REMARK   43  A    between atoms: _109  and  _110
REMARK   44  A    between atoms: _109  and  _112
REMARK   45  A    between atoms: _112  and  _113
REMARK   46  A    between atoms: _113  and  _114
REMARK   47  A    between atoms: _114  and  _115
REMARK   48  A    between atoms: _124  and  _126
REMARK   49  A    between atoms: _126  and  _127
REMARK   50  A    between atoms: _126  and  _129
REMARK   51  A    between atoms: _129  and  _130
REMARK   52  A    between atoms: _140  and  _142
REMARK   53  A    between atoms: _142  and  _143
REMARK   54  A    between atoms: _142  and  _145
REMARK   55  A    between atoms: _145  and  _146
REMARK   56  A    between atoms: _148  and  _150
REMARK   57  A    between atoms: _150  and  _151
REMARK   58  A    between atoms: _153  and  _155
REMARK   59  A    between atoms: _155  and  _156
REMARK   60  A    between atoms: _155  and  _158
REMARK   61  A    between atoms: _161  and  _163
REMARK   62  A    between atoms: _163  and  _164
REMARK   63  A    between atoms: _163  and  _166
REMARK   64  A    between atoms: _166  and  _167
REMARK   65  A    between atoms: _170  and  _172
REMARK   66  A    between atoms: _172  and  _173
REMARK   67  A    between atoms: _172  and  _175
REMARK   68  A    between atoms: _175  and  _176
REMARK   69  A    between atoms: _179  and  _181
REMARK   70  A    between atoms: _181  and  _182
REMARK   71  A    between atoms: _181  and  _184
REMARK   72  A    between atoms: _184  and  _185
REMARK   73  A    between atoms: _188  and  _190
REMARK   74  A    between atoms: _190  and  _191
REMARK   75  A    between atoms: _190  and  _193
REMARK   76  A    between atoms: _193  and  _194
REMARK   77  A    between atoms: _194  and  _195
REMARK   78  A    between atoms: _195  and  _196
REMARK   79  A    between atoms: _205  and  _207
REMARK   80  A    between atoms: _207  and  _208
REMARK   81  A    between atoms: _207  and  _210
REMARK   82  A    between atoms: _210  and  _211
REMARK   83  A    between atoms: _214  and  _216
REMARK   84  A    between atoms: _216  and  _217
REMARK   85  A    between atoms: _216  and  _219
REMARK   86  A    between atoms: _219  and  _220
REMARK   87  A    between atoms: _220  and  _221
REMARK   88  A    between atoms: _224  and  _226
REMARK   89  A    between atoms: _226  and  _227
REMARK   90  A    between atoms: _226  and  _229
REMARK   91  A    between atoms: _229  and  _230
REMARK   92  A    between atoms: _233  and  _235
REMARK   93  A    between atoms: _235  and  _236
REMARK   94  A    between atoms: _238  and  _240
REMARK   95  A    between atoms: _240  and  _241
REMARK   96  A    between atoms: _240  and  _243
REMARK   97  A    between atoms: _243  and  _244
REMARK   98  A    between atoms: _246  and  _248
REMARK   99  A    between atoms: _248  and  _249
REMARK  100  A    between atoms: _252  and  _254
REMARK  101  A    between atoms: _254  and  _255
REMARK  102  A    between atoms: _254  and  _257
REMARK  103  A    between atoms: _257  and  _258
REMARK  104  A    between atoms: _260  and  _262
REMARK  105  A    between atoms: _262  and  _263
REMARK  106  A    between atoms: _262  and  _265
REMARK  107  A    between atoms: _265  and  _266
REMARK  108  A    between atoms: _268  and  _270
REMARK  109  A    between atoms: _270  and  _271
REMARK  110  A    between atoms: _270  and  _273
REMARK  111  A    between atoms: _273  and  _274
REMARK  112  A    between atoms: _279  and  _281
REMARK  113  A    between atoms: _281  and  _282
REMARK  114  A    between atoms: _281  and  _284
REMARK  115  A    between atoms: _284  and  _285
REMARK  116  A    between atoms: _285  and  _286
REMARK  117  A    between atoms: _289  and  _291
REMARK  118  A    between atoms: _291  and  _292
REMARK  119  A    between atoms: _291  and  _294
REMARK  120  A    between atoms: _294  and  _295
REMARK  121  A    between atoms: _295  and  _296
REMARK  122  A    between atoms: _299  and  _301
REMARK  123  A    between atoms: _301  and  _302
REMARK  124  A    between atoms: _301  and  _304
REMARK  125  A    between atoms: _304  and  _305
REMARK  126  A    between atoms: _305  and  _306
REMARK  127  A    between atoms: _306  and  _307
REMARK  128  A    between atoms: _316  and  _318
REMARK  129  A    between atoms: _318  and  _319
REMARK  130  A    between atoms: _318  and  _321
REMARK  131  A    between atoms: _321  and  _322
REMARK  132  A    between atoms: _327  and  _329
REMARK  133  A    between atoms: _329  and  _330
REMARK  134  A    between atoms: _329  and  _332
REMARK  135  A    between atoms: _332  and  _333
REMARK  136  A    between atoms: _336  and  _338
REMARK  137  A    between atoms: _338  and  _339
REMARK  138  A    between atoms: _341  and  _343
REMARK  139  A    between atoms: _343  and  _344
REMARK  140  A    between atoms: _346  and  _348
REMARK  141  A    between atoms: _348  and  _349
REMARK  142  A    between atoms: _348  and  _351
REMARK  143  A    between atoms: _351  and  _352
REMARK  144  A    between atoms: _355  and  _357
REMARK  145  A    between atoms: _357  and  _358
REMARK  146  A    between atoms: _357  and  _360
REMARK  147  A    between atoms: _360  and  _361
REMARK  148  A    between atoms: _361  and  _362
REMARK  149  A    between atoms: _362  and  _363
REMARK  150  A    between atoms: _363  and  _364
REMARK  151  A    between atoms: _368  and  _370
REMARK  152  A    between atoms: _370  and  _371
REMARK  153  A    between atoms: _370  and  _373
REMARK  154  A    between atoms: _373  and  _374
REMARK  155  A    between atoms: _374  and  _375
REMARK  156  A    between atoms: _375  and  _376
REMARK  157  A    between atoms: _385  and  _387
REMARK  158  A    between atoms: _387  and  _388
REMARK  159  A    between atoms: _387  and  _390
REMARK  160  A    between atoms: _390  and  _391
REMARK  161  A    between atoms: _401  and  _403
REMARK  162  A    between atoms: _403  and  _404
REMARK  163  A    between atoms: _403  and  _406
REMARK  164  A    between atoms: _406  and  _407
REMARK  165  A    between atoms: _412  and  _413
REMARK  166  A    between atoms: _415  and  _417
REMARK  167  A    between atoms: _417  and  _418
REMARK  168  A    between atoms: _417  and  _420
REMARK  169  A    between atoms: _420  and  _421
REMARK  170  A    between atoms: _421  and  _422
REMARK  171  A    between atoms: _425  and  _427
REMARK  172  A    between atoms: _427  and  _428
REMARK  173  A    between atoms: _427  and  _430
REMARK  174  A    between atoms: _433  and  _435
REMARK  175  A    between atoms: _435  and  _436
REMARK  176  A    between atoms: _435  and  _438
REMARK  177  A    between atoms: _438  and  _439
REMARK                            x       y       z     vdW  Elec       q    Type
REMARK                         _______ _______ _______ _____ _____    ______ ____
ROOT
ATOM      1  O   HOH     1     -26.584  94.655   8.165  0.00  0.00    +0.000 OA
ENDROOT
TORSDOF 0
REMARK  Name = ../refined-set-2016/4cpy/4cpy_pocket.pdb
REMARK  177 active torsions:
REMARK  status: ('A' for Active; 'I' for Inactive)
REMARK    1  A    between atoms: _1  and  _3
REMARK    2  A    between atoms: _3  and  _4
REMARK    3  A    between atoms: _3  and  _6
REMARK    4  A    between atoms: _6  and  _7
REMARK    5  A    between atoms: _7  and  _8
REMARK    6  A    between atoms: _8  and  _9
REMARK    7  A    between atoms: _18  and  _20
REMARK    8  A    between atoms: _20  and  _21
REMARK    9  A    between atoms: _20  and  _23
REMARK   10  A    between atoms: _23  and  _24
REMARK   11  A    between atoms: _24  and  _25
REMARK   12  A    between atoms: _28  and  _30
REMARK   13  A    between atoms: _30  and  _31
REMARK   14  A    between atoms: _30  and  _33
REMARK   15  A    between atoms: _33  and  _34
REMARK   16  A    between atoms: _37  and  _39
REMARK   17  A    between atoms: _39  and  _40
REMARK   18  A    between atoms: _39  and  _42
REMARK   19  A    between atoms: _42  and  _43
REMARK   20  A    between atoms: _48  and  _50
REMARK   21  A    between atoms: _50  and  _51
REMARK   22  A    between atoms: _50  and  _53
REMARK   23  A    between atoms: _53  and  _54
REMARK   24  A    between atoms: _54  and  _55
REMARK   25  A    between atoms: _55  and  _56
REMARK   26  A    between atoms: _65  and  _67
REMARK   27  A    between atoms: _67  and  _68
REMARK   28  A    between atoms: _70  and  _72
REMARK   29  A    between atoms: _72  and  _73
REMARK   30  A    between atoms: _72  and  _75
REMARK   31  A    between atoms: _75  and  _76
REMARK   32  A    between atoms: _79  and  _81
REMARK   33  A    between atoms: _81  and  _82
REMARK   34  A    between atoms: _81  and  _84
REMARK   35  A    between atoms: _84  and  _85
REMARK   36  A    between atoms: _85  and  _86
REMARK   37  A    between atoms: _86  and  _87
REMARK   38  A    between atoms: _96  and  _98
REMARK   39  A    between atoms: _98  and  _99
REMARK   40  A    between atoms: _98  and  _101
REMARK   41  A    between atoms: _101  and  _102
REMARK   42  A    between atoms: _107  and  _109
REMARK   43  A    between atoms: _109  and  _110
REMARK   44  A    between atoms: _109  and  _112
REMARK   45  A    between atoms: _112  and  _113
REMARK   46  A    between atoms: _113  and  _114
REMARK   47  A    between atoms: _114  and  _115
REMARK   48  A    between atoms: _124  and  _126
REMARK   49  A    between atoms: _126  and  _127
REMARK   50  A    between atoms: _126  and  _129
REMARK   51  A    between atoms: _129  and  _130
REMARK   52  A    between atoms: _140  and  _142
REMARK   53  A    between atoms: _142  and  _143
REMARK   54  A    between atoms: _142  and  _145
REMARK   55  A    between atoms: _145  and  _146
REMARK   56  A    between atoms: _148  and  _150
REMARK   57  A    between atoms: _150  and  _151
REMARK   58  A    between atoms: _153  and  _155
REMARK   59  A    between atoms: _155  and  _156
REMARK   60  A    between atoms: _155  and  _158
REMARK   61  A    between atoms: _161  and  _163
REMARK   62  A    between atoms: _163  and  _164
REMARK   63  A    between atoms: _163  and  _166
REMARK   64  A    between atoms: _166  and  _167
REMARK   65  A    between atoms: _170  and  _172
REMARK   66  A    between atoms: _172  and  _173
REMARK   67  A    between atoms: _172  and  _175
REMARK   68  A    between atoms: _175  and  _176
REMARK   69  A    between atoms: _179  and  _181
REMARK   70  A    between atoms: _181  and  _182
REMARK   71  A    between atoms: _181  and  _184
REMARK   72  A    between atoms: _184  and  _185
REMARK   73  A    between atoms: _188  and  _190
REMARK   74  A    between atoms: _190  and  _191
REMARK   75  A    between atoms: _190  and  _193
REMARK   76  A    between atoms: _193  and  _194
REMARK   77  A    between atoms: _194  and  _195
REMARK   78  A    between atoms: _195  and  _196
REMARK   79  A    between atoms: _205  and  _207
REMARK   80  A    between atoms: _207  and  _208
REMARK   81  A    between atoms: _207  and  _210
REMARK   82  A    between atoms: _210  and  _211
REMARK   83  A    between atoms: _214  and  _216
REMARK   84  A    between atoms: _216  and  _217
REMARK   85  A    between atoms: _216  and  _219
REMARK   86  A    between atoms: _219  and  _220
REMARK   87  A    between atoms: _220  and  _221
REMARK   88  A    between atoms: _224  and  _226
REMARK   89  A    between atoms: _226  and  _227
REMARK   90  A    between atoms: _226  and  _229
REMARK   91  A    between atoms: _229  and  _230
REMARK   92  A    between atoms: _233  and  _235
REMARK   93  A    between atoms: _235  and  _236
REMARK   94  A    between atoms: _238  and  _240
REMARK   95  A    between atoms: _240  and  _241
REMARK   96  A    between atoms: _240  and  _243
REMARK   97  A    between atoms: _243  and  _244
REMARK   98  A    between atoms: _246  and  _248
REMARK   99  A    between atoms: _248  and  _249
REMARK  100  A    between atoms: _252  and  _254
REMARK  101  A    between atoms: _254  and  _255
REMARK  102  A    between atoms: _254  and  _257
REMARK  103  A    between atoms: _257  and  _258
REMARK  104  A    between atoms: _260  and  _262
REMARK  105  A    between atoms: _262  and  _263
REMARK  106  A    between atoms: _262  and  _265
REMARK  107  A    between atoms: _265  and  _266
REMARK  108  A    between atoms: _268  and  _270
REMARK  109  A    between atoms: _270  and  _271
REMARK  110  A    between atoms: _270  and  _273
REMARK  111  A    between atoms: _273  and  _274
REMARK  112  A    between atoms: _279  and  _281
REMARK  113  A    between atoms: _281  and  _282
REMARK  114  A    between atoms: _281  and  _284
REMARK  115  A    between atoms: _284  and  _285
REMARK  116  A    between atoms: _285  and  _286
REMARK  117  A    between atoms: _289  and  _291
REMARK  118  A    between atoms: _291  and  _292
REMARK  119  A    between atoms: _291  and  _294
REMARK  120  A    between atoms: _294  and  _295
REMARK  121  A    between atoms: _295  and  _296
REMARK  122  A    between atoms: _299  and  _301
REMARK  123  A    between atoms: _301  and  _302
REMARK  124  A    between atoms: _301  and  _304
REMARK  125  A    between atoms: _304  and  _305
REMARK  126  A    between atoms: _305  and  _306
REMARK  127  A    between atoms: _306  and  _307
REMARK  128  A    between atoms: _316  and  _318
REMARK  129  A    between atoms: _318  and  _319
REMARK  130  A    between atoms: _318  and  _321
REMARK  131  A    between atoms: _321  and  _322
REMARK  132  A    between atoms: _327  and  _329
REMARK  133  A    between atoms: _329  and  _330
REMARK  134  A    between atoms: _329  and  _332
REMARK  135  A    between atoms: _332  and  _333
REMARK  136  A    between atoms: _336  and  _338
REMARK  137  A    between atoms: _338  and  _339
REMARK  138  A    between atoms: _341  and  _343
REMARK  139  A    between atoms: _343  and  _344
REMARK  140  A    between atoms: _346  and  _348
REMARK  141  A    between atoms: _348  and  _349
REMARK  142  A    between atoms: _348  and  _351
REMARK  143  A    between atoms: _351  and  _352
REMARK  144  A    between atoms: _355  and  _357
REMARK  145  A    between atoms: _357  and  _358
REMARK  146  A    between atoms: _357  and  _360
REMARK  147  A    between atoms: _360  and  _361
REMARK  148  A    between atoms: _361  and  _362
REMARK  149  A    between atoms: _362  and  _363
REMARK  150  A    between atoms: _363  and  _364
REMARK  151  A    between atoms: _368  and  _370
REMARK  152  A    between atoms: _370  and  _371
REMARK  153  A    between atoms: _370  and  _373
REMARK  154  A    between atoms: _373  and  _374
REMARK  155  A    between atoms: _374  and  _375
REMARK  156  A    between atoms: _375  and  _376
REMARK  157  A    between atoms: _385  and  _387
REMARK  158  A    between atoms: _387  and  _388
REMARK  159  A    between atoms: _387  and  _390
REMARK  160  A    between atoms: _390  and  _391
REMARK  161  A    between atoms: _401  and  _403
REMARK  162  A    between atoms: _403  and  _404
REMARK  163  A    between atoms: _403  and  _406
REMARK  164  A    between atoms: _406  and  _407
REMARK  165  A    between atoms: _412  and  _413
REMARK  166  A    between atoms: _415  and  _417
REMARK  167  A    between atoms: _417  and  _418
REMARK  168  A    between atoms: _417  and  _420
REMARK  169  A    between atoms: _420  and  _421
REMARK  170  A    between atoms: _421  and  _422
REMARK  171  A    between atoms: _425  and  _427
REMARK  172  A    between atoms: _427  and  _428
REMARK  173  A    between atoms: _427  and  _430
REMARK  174  A    between atoms: _433  and  _435
REMARK  175  A    between atoms: _435  and  _436
REMARK  176  A    between atoms: _435  and  _438
REMARK  177  A    between atoms: _438  and  _439
REMARK                            x       y       z     vdW  Elec       q    Type
REMARK                         _______ _______ _______ _____ _____    ______ ____
ROOT
ATOM      1  O   HOH     1     -23.464  93.924  10.163  0.00  0.00    +0.000 OA
ENDROOT
TORSDOF 0
