REMARK  Name = ../refined-set-2016/1ppl/1ppl_pocket.pdb
REMARK  246 active torsions:
REMARK  status: ('A' for Active; 'I' for Inactive)
REMARK    1  A    between atoms: _1  and  _3
REMARK    2  A    between atoms: _3  and  _4
REMARK    3  A    between atoms: _3  and  _6
REMARK    4  A    between atoms: _6  and  _7
REMARK    5  A    between atoms: _10  and  _12
REMARK    6  A    between atoms: _12  and  _13
REMARK    7  A    between atoms: _16  and  _18
REMARK    8  A    between atoms: _18  and  _19
REMARK    9  A    between atoms: _18  and  _21
REMARK   10  A    between atoms: _21  and  _22
REMARK   11  A    between atoms: _27  and  _29
REMARK   12  A    between atoms: _29  and  _30
REMARK   13  A    between atoms: _29  and  _32
REMARK   14  A    between atoms: _32  and  _33
REMARK   15  A    between atoms: _36  and  _38
REMARK   16  A    between atoms: _38  and  _39
REMARK   17  A    between atoms: _38  and  _41
REMARK   18  A    between atoms: _41  and  _42
REMARK   19  A    between atoms: _42  and  _43
REMARK   20  A    between atoms: _46  and  _48
REMARK   21  A    between atoms: _48  and  _49
REMARK   22  A    between atoms: _48  and  _51
REMARK   23  A    between atoms: _51  and  _52
REMARK   24  A    between atoms: _52  and  _53
REMARK   25  A    between atoms: _56  and  _58
REMARK   26  A    between atoms: _58  and  _59
REMARK   27  A    between atoms: _58  and  _61
REMARK   28  A    between atoms: _61  and  _62
REMARK   29  A    between atoms: _67  and  _68
REMARK   30  A    between atoms: _70  and  _72
REMARK   31  A    between atoms: _72  and  _73
REMARK   32  A    between atoms: _72  and  _75
REMARK   33  A    between atoms: _75  and  _76
REMARK   34  A    between atoms: _81  and  _83
REMARK   35  A    between atoms: _83  and  _84
REMARK   36  A    between atoms: _83  and  _86
REMARK   37  A    between atoms: _86  and  _87
REMARK   38  A    between atoms: _93  and  _95
REMARK   39  A    between atoms: _95  and  _96
REMARK   40  A    between atoms: _95  and  _98
REMARK   41  A    between atoms: _98  and  _99
REMARK   42  A    between atoms: _102  and  _104
REMARK   43  A    between atoms: _104  and  _105
REMARK   44  A    between atoms: _104  and  _107
REMARK   45  A    between atoms: _107  and  _108
REMARK   46  A    between atoms: _111  and  _113
REMARK   47  A    between atoms: _113  and  _114
REMARK   48  A    between atoms: _116  and  _118
REMARK   49  A    between atoms: _118  and  _119
REMARK   50  A    between atoms: _118  and  _121
REMARK   51  A    between atoms: _121  and  _122
REMARK   52  A    between atoms: _124  and  _126
REMARK   53  A    between atoms: _126  and  _127
REMARK   54  A    between atoms: _130  and  _132
REMARK   55  A    between atoms: _132  and  _133
REMARK   56  A    between atoms: _132  and  _135
REMARK   57  A    between atoms: _135  and  _136
REMARK   58  A    between atoms: _139  and  _141
REMARK   59  A    between atoms: _141  and  _142
REMARK   60  A    between atoms: _141  and  _144
REMARK   61  A    between atoms: _144  and  _145
REMARK   62  A    between atoms: _155  and  _157
REMARK   63  A    between atoms: _157  and  _158
REMARK   64  A    between atoms: _157  and  _160
REMARK   65  A    between atoms: _160  and  _161
REMARK   66  A    between atoms: _164  and  _166
REMARK   67  A    between atoms: _166  and  _167
REMARK   68  A    between atoms: _166  and  _169
REMARK   69  A    between atoms: _169  and  _170
REMARK   70  A    between atoms: _172  and  _174
REMARK   71  A    between atoms: _174  and  _175
REMARK   72  A    between atoms: _174  and  _177
REMARK   73  A    between atoms: _177  and  _178
REMARK   74  A    between atoms: _183  and  _184
REMARK   75  A    between atoms: _186  and  _188
REMARK   76  A    between atoms: _188  and  _189
REMARK   77  A    between atoms: _191  and  _193
REMARK   78  A    between atoms: _193  and  _194
REMARK   79  A    between atoms: _193  and  _196
REMARK   80  A    between atoms: _196  and  _197
REMARK   81  A    between atoms: _200  and  _202
REMARK   82  A    between atoms: _202  and  _203
REMARK   83  A    between atoms: _205  and  _207
REMARK   84  A    between atoms: _207  and  _208
REMARK   85  A    between atoms: _207  and  _210
REMARK   86  A    between atoms: _210  and  _211
REMARK   87  A    between atoms: _213  and  _215
REMARK   88  A    between atoms: _215  and  _216
REMARK   89  A    between atoms: _215  and  _218
REMARK   90  A    between atoms: _218  and  _219
REMARK   91  A    between atoms: _221  and  _223
REMARK   92  A    between atoms: _223  and  _224
REMARK   93  A    between atoms: _223  and  _226
REMARK   94  A    between atoms: _226  and  _227
REMARK   95  A    between atoms: _227  and  _228
REMARK   96  A    between atoms: _233  and  _235
REMARK   97  A    between atoms: _235  and  _236
REMARK   98  A    between atoms: _235  and  _238
REMARK   99  A    between atoms: _238  and  _239
REMARK  100  A    between atoms: _245  and  _247
REMARK  101  A    between atoms: _247  and  _248
REMARK  102  A    between atoms: _247  and  _250
REMARK  103  A    between atoms: _250  and  _251
REMARK  104  A    between atoms: _254  and  _256
REMARK  105  A    between atoms: _256  and  _257
REMARK  106  A    between atoms: _256  and  _259
REMARK  107  A    between atoms: _259  and  _260
REMARK  108  A    between atoms: _265  and  _267
REMARK  109  A    between atoms: _267  and  _268
REMARK  110  A    between atoms: _267  and  _270
REMARK  111  A    between atoms: _270  and  _271
REMARK  112  A    between atoms: _276  and  _278
REMARK  113  A    between atoms: _278  and  _279
REMARK  114  A    between atoms: _281  and  _283
REMARK  115  A    between atoms: _283  and  _284
REMARK  116  A    between atoms: _283  and  _286
REMARK  117  A    between atoms: _286  and  _287
REMARK  118  A    between atoms: _290  and  _292
REMARK  119  A    between atoms: _292  and  _293
REMARK  120  A    between atoms: _292  and  _295
REMARK  121  A    between atoms: _295  and  _296
REMARK  122  A    between atoms: _299  and  _301
REMARK  123  A    between atoms: _301  and  _302
REMARK  124  A    between atoms: _304  and  _306
REMARK  125  A    between atoms: _306  and  _307
REMARK  126  A    between atoms: _306  and  _309
REMARK  127  A    between atoms: _309  and  _310
REMARK  128  A    between atoms: _313  and  _315
REMARK  129  A    between atoms: _315  and  _316
REMARK  130  A    between atoms: _319  and  _321
REMARK  131  A    between atoms: _321  and  _322
REMARK  132  A    between atoms: _321  and  _324
REMARK  133  A    between atoms: _324  and  _325
REMARK  134  A    between atoms: _328  and  _330
REMARK  135  A    between atoms: _330  and  _331
REMARK  136  A    between atoms: _330  and  _333
REMARK  137  A    between atoms: _333  and  _334
REMARK  138  A    between atoms: _337  and  _339
REMARK  139  A    between atoms: _339  and  _340
REMARK  140  A    between atoms: _339  and  _342
REMARK  141  A    between atoms: _342  and  _343
REMARK  142  A    between atoms: _349  and  _351
REMARK  143  A    between atoms: _351  and  _352
REMARK  144  A    between atoms: _351  and  _354
REMARK  145  A    between atoms: _354  and  _355
REMARK  146  A    between atoms: _365  and  _367
REMARK  147  A    between atoms: _367  and  _368
REMARK  148  A    between atoms: _367  and  _370
REMARK  149  A    between atoms: _370  and  _371
REMARK  150  A    between atoms: _374  and  _376
REMARK  151  A    between atoms: _376  and  _377
REMARK  152  A    between atoms: _380  and  _382
REMARK  153  A    between atoms: _382  and  _383
REMARK  154  A    between atoms: _382  and  _385
REMARK  155  A    between atoms: _385  and  _386
REMARK  156  A    between atoms: _389  and  _391
REMARK  157  A    between atoms: _391  and  _392
REMARK  158  A    between atoms: _391  and  _394
REMARK  159  A    between atoms: _394  and  _395
REMARK  160  A    between atoms: _398  and  _400
REMARK  161  A    between atoms: _400  and  _401
REMARK  162  A    between atoms: _403  and  _405
REMARK  163  A    between atoms: _405  and  _406
REMARK  164  A    between atoms: _405  and  _408
REMARK  165  A    between atoms: _408  and  _409
REMARK  166  A    between atoms: _412  and  _414
REMARK  167  A    between atoms: _414  and  _415
REMARK  168  A    between atoms: _414  and  _417
REMARK  169  A    between atoms: _417  and  _418
REMARK  170  A    between atoms: _421  and  _423
REMARK  171  A    between atoms: _423  and  _424
REMARK  172  A    between atoms: _423  and  _426
REMARK  173  A    between atoms: _426  and  _427
REMARK  174  A    between atoms: _430  and  _432
REMARK  175  A    between atoms: _432  and  _433
REMARK  176  A    between atoms: _432  and  _435
REMARK  177  A    between atoms: _435  and  _436
REMARK  178  A    between atoms: _439  and  _441
REMARK  179  A    between atoms: _441  and  _442
REMARK  180  A    between atoms: _441  and  _444
REMARK  181  A    between atoms: _444  and  _445
REMARK  182  A    between atoms: _448  and  _450
REMARK  183  A    between atoms: _450  and  _451
REMARK  184  A    between atoms: _454  and  _456
REMARK  185  A    between atoms: _456  and  _457
REMARK  186  A    between atoms: _459  and  _461
REMARK  187  A    between atoms: _461  and  _462
REMARK  188  A    between atoms: _464  and  _466
REMARK  189  A    between atoms: _466  and  _467
REMARK  190  A    between atoms: _466  and  _469
REMARK  191  A    between atoms: _469  and  _470
REMARK  192  A    between atoms: _475  and  _476
REMARK  193  A    between atoms: _479  and  _480
REMARK  194  A    between atoms: _485  and  _487
REMARK  195  A    between atoms: _487  and  _488
REMARK  196  A    between atoms: _487  and  _490
REMARK  197  A    between atoms: _490  and  _491
REMARK  198  A    between atoms: _493  and  _495
REMARK  199  A    between atoms: _495  and  _496
REMARK  200  A    between atoms: _495  and  _498
REMARK  201  A    between atoms: _498  and  _499
REMARK  202  A    between atoms: _502  and  _504
REMARK  203  A    between atoms: _504  and  _505
REMARK  204  A    between atoms: _507  and  _509
REMARK  205  A    between atoms: _509  and  _510
REMARK  206  A    between atoms: _509  and  _512
REMARK  207  A    between atoms: _512  and  _513
REMARK  208  A    between atoms: _513  and  _514
REMARK  209  A    between atoms: _519  and  _521
REMARK  210  A    between atoms: _521  and  _522
REMARK  211  A    between atoms: _521  and  _524
REMARK  212  A    between atoms: _524  and  _525
REMARK  213  A    between atoms: _527  and  _529
REMARK  214  A    between atoms: _529  and  _530
REMARK  215  A    between atoms: _529  and  _532
REMARK  216  A    between atoms: _532  and  _533
REMARK  217  A    between atoms: _538  and  _540
REMARK  218  A    between atoms: _540  and  _541
REMARK  219  A    between atoms: _540  and  _543
REMARK  220  A    between atoms: _543  and  _544
REMARK  221  A    between atoms: _546  and  _548
REMARK  222  A    between atoms: _548  and  _549
REMARK  223  A    between atoms: _548  and  _551
REMARK  224  A    between atoms: _551  and  _552
REMARK  225  A    between atoms: _555  and  _557
REMARK  226  A    between atoms: _557  and  _558
REMARK  227  A    between atoms: _557  and  _560
REMARK  228  A    between atoms: _560  and  _561
REMARK  229  A    between atoms: _567  and  _569
REMARK  230  A    between atoms: _569  and  _570
REMARK  231  A    between atoms: _569  and  _572
REMARK  232  A    between atoms: _572  and  _573
REMARK  233  A    between atoms: _575  and  _577
REMARK  234  A    between atoms: _577  and  _578
REMARK  235  A    between atoms: _577  and  _580
REMARK  236  A    between atoms: _580  and  _581
REMARK  237  A    between atoms: _584  and  _586
REMARK  238  A    between atoms: _586  and  _587
REMARK  239  A    between atoms: _586  and  _589
REMARK  240  A    between atoms: _589  and  _590
REMARK  241  A    between atoms: _596  and  _598
REMARK  242  A    between atoms: _598  and  _599
REMARK  243  A    between atoms: _601  and  _603
REMARK  244  A    between atoms: _603  and  _604
REMARK  245  A    between atoms: _603  and  _606
REMARK  246  A    between atoms: _606  and  _607
REMARK                            x       y       z     vdW  Elec       q    Type
REMARK                         _______ _______ _______ _____ _____    ______ ____
ROOT
ATOM      1  C   ASP A   4      15.491   7.117  10.820  0.00  0.00    +0.241 C 
ATOM      2  O   ASP A   4      15.521   8.066  11.649  0.00  0.00    -0.273 OA
ATOM      3  N   GLU A   5      16.022   5.984  11.144  0.00  0.00    -0.297 N 
ATOM      4  H   GLU A   5      16.049   5.224  10.435  0.00  0.00    +0.150 HD
ENDROOT
BRANCH   3   5
ATOM      5  CA  GLU A   5      16.596   5.726  12.493  0.00  0.00    +0.149 C 
BRANCH   5   6
ATOM      6  C   GLU A   5      17.846   6.593  12.765  0.00  0.00    +0.241 C 
ATOM      7  O   GLU A   5      17.959   7.100  13.890  0.00  0.00    -0.273 OA
ATOM      8  N   GLU A   6      18.661   6.709  11.762  0.00  0.00    -0.297 N 
ATOM      9  H   GLU A   6      18.473   6.188  10.882  0.00  0.00    +0.150 HD
BRANCH   8  10
ATOM     10  CA  GLU A   6      19.869   7.586  11.860  0.00  0.00    +0.149 C 
BRANCH  10  11
ATOM     11  C   GLU A   6      20.171   8.135  10.498  0.00  0.00    +0.240 C 
ATOM     12  N   TYR A   7      20.979   9.175  10.432  0.00  0.00    -0.302 N 
ATOM     13  H   TYR A   7      21.358   9.578  11.313  0.00  0.00    +0.150 HD
ATOM     14  O   GLU A   6      19.579   7.611   9.539  0.00  0.00    -0.273 OA
BRANCH  12  15
ATOM     15  CA  TYR A   7      21.358   9.779   9.152  0.00  0.00    +0.109 C 
BRANCH  15  16
ATOM     16  C   TYR A   7      22.882   9.616   8.907  0.00  0.00    +0.202 C 
ATOM     17  O   TYR A   7      23.578  10.028   9.878  0.00  0.00    -0.219 OA
ENDBRANCH  15  16
BRANCH  15  18
ATOM     18  CB  TYR A   7      20.945  11.240   9.154  0.00  0.00    +0.049 C 
BRANCH  18  19
ATOM     19  CG  TYR A   7      19.383  11.395   9.033  0.00  0.00    -0.020 A 
ATOM     20  CD2 TYR A   7      18.623  11.089  10.160  0.00  0.00    -0.001 A 
ATOM     21  CE2 TYR A   7      17.252  11.179  10.116  0.00  0.00    +0.036 A 
ATOM     22  CZ  TYR A   7      16.682  11.586   8.894  0.00  0.00    +0.134 A 
ATOM     23  CE1 TYR A   7      17.417  11.878   7.726  0.00  0.00    +0.036 A 
ATOM     24  CD1 TYR A   7      18.835  11.766   7.822  0.00  0.00    -0.001 A 
BRANCH  22  25
ATOM     25  OH  TYR A   7      15.296  11.662   8.839  0.00  0.00    -0.506 OA
ATOM     26  HH  TYR A   7      14.958  11.025   8.160  0.00  0.00    +0.292 HD
ENDBRANCH  22  25
ENDBRANCH  18  19
ENDBRANCH  15  18
ENDBRANCH  12  15
ENDBRANCH  10  11
BRANCH  10  27
ATOM     27  CB  GLU A   6      21.078   6.845  12.416  0.00  0.00    +0.041 C 
BRANCH  27  28
ATOM     28  CG  GLU A   6      21.411   5.535  11.748  0.00  0.00    +0.116 C 
BRANCH  28  29
ATOM     29  CD  GLU A   6      22.291   4.728  12.747  0.00  0.00    +0.365 C 
ATOM     30  OE2 GLU A   6      22.067   4.119  13.738  0.00  0.00    -0.246 OA
ATOM     31  OE1 GLU A   6      23.404   4.969  12.356  0.00  0.00    -0.246 OA
ENDBRANCH  28  29
ENDBRANCH  27  28
ENDBRANCH  10  27
ENDBRANCH   8  10
ENDBRANCH   5   6
BRANCH   5  32
ATOM     32  CB  GLU A   5      16.903   4.288  12.724  0.00  0.00    +0.041 C 
BRANCH  32  33
ATOM     33  CG  GLU A   5      17.203   3.948  14.194  0.00  0.00    +0.116 C 
BRANCH  33  34
ATOM     34  CD  GLU A   5      17.764   2.558  14.230  0.00  0.00    +0.365 C 
ATOM     35  OE2 GLU A   5      18.923   2.247  14.183  0.00  0.00    -0.246 OA
ATOM     36  OE1 GLU A   5      16.839   1.752  14.103  0.00  0.00    -0.246 OA
ENDBRANCH  33  34
ENDBRANCH  32  33
ENDBRANCH   5  32
ENDBRANCH   3   5
BRANCH   1  37
ATOM     37  CA  ASP A   4      14.960   7.298   9.377  0.00  0.00    +0.160 C 
BRANCH  37  40
ATOM     38  C   ASN A   3      13.291   5.574   9.555  0.00  0.00    +0.241 C 
ATOM     39  O   ASN A   3      12.754   6.074  10.545  0.00  0.00    -0.273 OA
ATOM     40  N   ASP A   4      14.315   6.064   8.915  0.00  0.00    -0.297 N 
ATOM     41  H   ASP A   4      14.678   5.577   8.071  0.00  0.00    +0.150 HD
BRANCH  38  42
ATOM     42  CA  ASN A   3      12.735   4.241   9.051  0.00  0.00    +0.158 C 
BRANCH  42  45
ATOM     43  C   ALA A   2      14.783   3.067   8.501  0.00  0.00    +0.241 C 
ATOM     44  O   ALA A   2      15.256   3.200   9.649  0.00  0.00    -0.273 OA
ATOM     45  N   ASN A   3      13.657   3.569   8.170  0.00  0.00    -0.297 N 
ATOM     46  H   ASN A   3      13.379   3.485   7.171  0.00  0.00    +0.150 HD
BRANCH  43  47
ATOM     47  CA  ALA A   2      15.590   2.341   7.416  0.00  0.00    +0.149 C 
ATOM     48  CB  ALA A   2      15.571   0.855   7.750  0.00  0.00    +0.031 C 
BRANCH  47  50
ATOM     49  C   THR A   1      17.280   4.111   7.246  0.00  0.00    +0.241 C 
ATOM     50  N   ALA A   2      17.004   2.800   7.391  0.00  0.00    -0.297 N 
ATOM     51  H   ALA A   2      17.778   2.111   7.485  0.00  0.00    +0.150 HD
ATOM     52  O   THR A   1      16.396   4.967   7.106  0.00  0.00    -0.274 OA
BRANCH  49  53
ATOM     53  CA  THR A   1      18.745   4.551   7.191  0.00  0.00    +0.172 C 
BRANCH  53  54
ATOM     54  N   THR A   1      18.728   6.040   7.207  0.00  0.00    -0.236 NA
ATOM     55  H   THR A   1      18.833   6.533   8.117  0.00  0.00    +0.142 HD
ENDBRANCH  53  54
BRANCH  53  56
ATOM     56  CB  THR A   1      19.540   3.962   8.426  0.00  0.00    +0.135 C 
ATOM     57  CG2 THR A   1      20.987   4.459   8.369  0.00  0.00    +0.034 C 
BRANCH  56  58
ATOM     58  OG1 THR A   1      18.853   4.328   9.576  0.00  0.00    -0.383 OA
ATOM     59  HG1 THR A   1      19.327   3.973  10.369  0.00  0.00    +0.210 HD
ENDBRANCH  56  58
ENDBRANCH  53  56
ENDBRANCH  49  53
ENDBRANCH  47  50
ENDBRANCH  43  47
ENDBRANCH  42  45
BRANCH  42  60
ATOM     60  CB  ASN A   3      12.358   3.385  10.239  0.00  0.00    +0.114 C 
BRANCH  60  61
ATOM     61  CG  ASN A   3      11.582   2.145   9.800  0.00  0.00    +0.222 C 
ATOM     62  OD1 ASN A   3      11.960   1.057  10.290  0.00  0.00    -0.275 OA
ATOM     63  ND2 ASN A   3      10.622   2.391   8.967  0.00  0.00    -0.329 N 
ATOM     64 HD21 ASN A   3      10.440   3.367   8.657  0.00  0.00    +0.145 HD
ATOM     65 HD22 ASN A   3      10.033   1.613   8.608  0.00  0.00    +0.145 HD
ENDBRANCH  60  61
ENDBRANCH  42  60
ENDBRANCH  38  42
ENDBRANCH  37  40
BRANCH  37  66
ATOM     66  CB  ASP A   4      14.016   8.490   9.387  0.00  0.00    +0.143 C 
BRANCH  66  67
ATOM     67  CG  ASP A   4      13.312   8.838   8.105  0.00  0.00    +0.367 C 
ATOM     68  OD2 ASP A   4      12.337   9.608   8.248  0.00  0.00    -0.246 OA
ATOM     69  OD1 ASP A   4      13.760   8.434   6.981  0.00  0.00    -0.246 OA
ENDBRANCH  66  67
ENDBRANCH  37  66
ENDBRANCH   1  37
TORSDOF 29
REMARK  Name = ../refined-set-2016/1ppl/1ppl_pocket.pdb
REMARK  246 active torsions:
REMARK  status: ('A' for Active; 'I' for Inactive)
REMARK    1  A    between atoms: _1  and  _3
REMARK    2  A    between atoms: _3  and  _4
REMARK    3  A    between atoms: _3  and  _6
REMARK    4  A    between atoms: _6  and  _7
REMARK    5  A    between atoms: _10  and  _12
REMARK    6  A    between atoms: _12  and  _13
REMARK    7  A    between atoms: _16  and  _18
REMARK    8  A    between atoms: _18  and  _19
REMARK    9  A    between atoms: _18  and  _21
REMARK   10  A    between atoms: _21  and  _22
REMARK   11  A    between atoms: _27  and  _29
REMARK   12  A    between atoms: _29  and  _30
REMARK   13  A    between atoms: _29  and  _32
REMARK   14  A    between atoms: _32  and  _33
REMARK   15  A    between atoms: _36  and  _38
REMARK   16  A    between atoms: _38  and  _39
REMARK   17  A    between atoms: _38  and  _41
REMARK   18  A    between atoms: _41  and  _42
REMARK   19  A    between atoms: _42  and  _43
REMARK   20  A    between atoms: _46  and  _48
REMARK   21  A    between atoms: _48  and  _49
REMARK   22  A    between atoms: _48  and  _51
REMARK   23  A    between atoms: _51  and  _52
REMARK   24  A    between atoms: _52  and  _53
REMARK   25  A    between atoms: _56  and  _58
REMARK   26  A    between atoms: _58  and  _59
REMARK   27  A    between atoms: _58  and  _61
REMARK   28  A    between atoms: _61  and  _62
REMARK   29  A    between atoms: _67  and  _68
REMARK   30  A    between atoms: _70  and  _72
REMARK   31  A    between atoms: _72  and  _73
REMARK   32  A    between atoms: _72  and  _75
REMARK   33  A    between atoms: _75  and  _76
REMARK   34  A    between atoms: _81  and  _83
REMARK   35  A    between atoms: _83  and  _84
REMARK   36  A    between atoms: _83  and  _86
REMARK   37  A    between atoms: _86  and  _87
REMARK   38  A    between atoms: _93  and  _95
REMARK   39  A    between atoms: _95  and  _96
REMARK   40  A    between atoms: _95  and  _98
REMARK   41  A    between atoms: _98  and  _99
REMARK   42  A    between atoms: _102  and  _104
REMARK   43  A    between atoms: _104  and  _105
REMARK   44  A    between atoms: _104  and  _107
REMARK   45  A    between atoms: _107  and  _108
REMARK   46  A    between atoms: _111  and  _113
REMARK   47  A    between atoms: _113  and  _114
REMARK   48  A    between atoms: _116  and  _118
REMARK   49  A    between atoms: _118  and  _119
REMARK   50  A    between atoms: _118  and  _121
REMARK   51  A    between atoms: _121  and  _122
REMARK   52  A    between atoms: _124  and  _126
REMARK   53  A    between atoms: _126  and  _127
REMARK   54  A    between atoms: _130  and  _132
REMARK   55  A    between atoms: _132  and  _133
REMARK   56  A    between atoms: _132  and  _135
REMARK   57  A    between atoms: _135  and  _136
REMARK   58  A    between atoms: _139  and  _141
REMARK   59  A    between atoms: _141  and  _142
REMARK   60  A    between atoms: _141  and  _144
REMARK   61  A    between atoms: _144  and  _145
REMARK   62  A    between atoms: _155  and  _157
REMARK   63  A    between atoms: _157  and  _158
REMARK   64  A    between atoms: _157  and  _160
REMARK   65  A    between atoms: _160  and  _161
REMARK   66  A    between atoms: _164  and  _166
REMARK   67  A    between atoms: _166  and  _167
REMARK   68  A    between atoms: _166  and  _169
REMARK   69  A    between atoms: _169  and  _170
REMARK   70  A    between atoms: _172  and  _174
REMARK   71  A    between atoms: _174  and  _175
REMARK   72  A    between atoms: _174  and  _177
REMARK   73  A    between atoms: _177  and  _178
REMARK   74  A    between atoms: _183  and  _184
REMARK   75  A    between atoms: _186  and  _188
REMARK   76  A    between atoms: _188  and  _189
REMARK   77  A    between atoms: _191  and  _193
REMARK   78  A    between atoms: _193  and  _194
REMARK   79  A    between atoms: _193  and  _196
REMARK   80  A    between atoms: _196  and  _197
REMARK   81  A    between atoms: _200  and  _202
REMARK   82  A    between atoms: _202  and  _203
REMARK   83  A    between atoms: _205  and  _207
REMARK   84  A    between atoms: _207  and  _208
REMARK   85  A    between atoms: _207  and  _210
REMARK   86  A    between atoms: _210  and  _211
REMARK   87  A    between atoms: _213  and  _215
REMARK   88  A    between atoms: _215  and  _216
REMARK   89  A    between atoms: _215  and  _218
REMARK   90  A    between atoms: _218  and  _219
REMARK   91  A    between atoms: _221  and  _223
REMARK   92  A    between atoms: _223  and  _224
REMARK   93  A    between atoms: _223  and  _226
REMARK   94  A    between atoms: _226  and  _227
REMARK   95  A    between atoms: _227  and  _228
REMARK   96  A    between atoms: _233  and  _235
REMARK   97  A    between atoms: _235  and  _236
REMARK   98  A    between atoms: _235  and  _238
REMARK   99  A    between atoms: _238  and  _239
REMARK  100  A    between atoms: _245  and  _247
REMARK  101  A    between atoms: _247  and  _248
REMARK  102  A    between atoms: _247  and  _250
REMARK  103  A    between atoms: _250  and  _251
REMARK  104  A    between atoms: _254  and  _256
REMARK  105  A    between atoms: _256  and  _257
REMARK  106  A    between atoms: _256  and  _259
REMARK  107  A    between atoms: _259  and  _260
REMARK  108  A    between atoms: _265  and  _267
REMARK  109  A    between atoms: _267  and  _268
REMARK  110  A    between atoms: _267  and  _270
REMARK  111  A    between atoms: _270  and  _271
REMARK  112  A    between atoms: _276  and  _278
REMARK  113  A    between atoms: _278  and  _279
REMARK  114  A    between atoms: _281  and  _283
REMARK  115  A    between atoms: _283  and  _284
REMARK  116  A    between atoms: _283  and  _286
REMARK  117  A    between atoms: _286  and  _287
REMARK  118  A    between atoms: _290  and  _292
REMARK  119  A    between atoms: _292  and  _293
REMARK  120  A    between atoms: _292  and  _295
REMARK  121  A    between atoms: _295  and  _296
REMARK  122  A    between atoms: _299  and  _301
REMARK  123  A    between atoms: _301  and  _302
REMARK  124  A    between atoms: _304  and  _306
REMARK  125  A    between atoms: _306  and  _307
REMARK  126  A    between atoms: _306  and  _309
REMARK  127  A    between atoms: _309  and  _310
REMARK  128  A    between atoms: _313  and  _315
REMARK  129  A    between atoms: _315  and  _316
REMARK  130  A    between atoms: _319  and  _321
REMARK  131  A    between atoms: _321  and  _322
REMARK  132  A    between atoms: _321  and  _324
REMARK  133  A    between atoms: _324  and  _325
REMARK  134  A    between atoms: _328  and  _330
REMARK  135  A    between atoms: _330  and  _331
REMARK  136  A    between atoms: _330  and  _333
REMARK  137  A    between atoms: _333  and  _334
REMARK  138  A    between atoms: _337  and  _339
REMARK  139  A    between atoms: _339  and  _340
REMARK  140  A    between atoms: _339  and  _342
REMARK  141  A    between atoms: _342  and  _343
REMARK  142  A    between atoms: _349  and  _351
REMARK  143  A    between atoms: _351  and  _352
REMARK  144  A    between atoms: _351  and  _354
REMARK  145  A    between atoms: _354  and  _355
REMARK  146  A    between atoms: _365  and  _367
REMARK  147  A    between atoms: _367  and  _368
REMARK  148  A    between atoms: _367  and  _370
REMARK  149  A    between atoms: _370  and  _371
REMARK  150  A    between atoms: _374  and  _376
REMARK  151  A    between atoms: _376  and  _377
REMARK  152  A    between atoms: _380  and  _382
REMARK  153  A    between atoms: _382  and  _383
REMARK  154  A    between atoms: _382  and  _385
REMARK  155  A    between atoms: _385  and  _386
REMARK  156  A    between atoms: _389  and  _391
REMARK  157  A    between atoms: _391  and  _392
REMARK  158  A    between atoms: _391  and  _394
REMARK  159  A    between atoms: _394  and  _395
REMARK  160  A    between atoms: _398  and  _400
REMARK  161  A    between atoms: _400  and  _401
REMARK  162  A    between atoms: _403  and  _405
REMARK  163  A    between atoms: _405  and  _406
REMARK  164  A    between atoms: _405  and  _408
REMARK  165  A    between atoms: _408  and  _409
REMARK  166  A    between atoms: _412  and  _414
REMARK  167  A    between atoms: _414  and  _415
REMARK  168  A    between atoms: _414  and  _417
REMARK  169  A    between atoms: _417  and  _418
REMARK  170  A    between atoms: _421  and  _423
REMARK  171  A    between atoms: _423  and  _424
REMARK  172  A    between atoms: _423  and  _426
REMARK  173  A    between atoms: _426  and  _427
REMARK  174  A    between atoms: _430  and  _432
REMARK  175  A    between atoms: _432  and  _433
REMARK  176  A    between atoms: _432  and  _435
REMARK  177  A    between atoms: _435  and  _436
REMARK  178  A    between atoms: _439  and  _441
REMARK  179  A    between atoms: _441  and  _442
REMARK  180  A    between atoms: _441  and  _444
REMARK  181  A    between atoms: _444  and  _445
REMARK  182  A    between atoms: _448  and  _450
REMARK  183  A    between atoms: _450  and  _451
REMARK  184  A    between atoms: _454  and  _456
REMARK  185  A    between atoms: _456  and  _457
REMARK  186  A    between atoms: _459  and  _461
REMARK  187  A    between atoms: _461  and  _462
REMARK  188  A    between atoms: _464  and  _466
REMARK  189  A    between atoms: _466  and  _467
REMARK  190  A    between atoms: _466  and  _469
REMARK  191  A    between atoms: _469  and  _470
REMARK  192  A    between atoms: _475  and  _476
REMARK  193  A    between atoms: _479  and  _480
REMARK  194  A    between atoms: _485  and  _487
REMARK  195  A    between atoms: _487  and  _488
REMARK  196  A    between atoms: _487  and  _490
REMARK  197  A    between atoms: _490  and  _491
REMARK  198  A    between atoms: _493  and  _495
REMARK  199  A    between atoms: _495  and  _496
REMARK  200  A    between atoms: _495  and  _498
REMARK  201  A    between atoms: _498  and  _499
REMARK  202  A    between atoms: _502  and  _504
REMARK  203  A    between atoms: _504  and  _505
REMARK  204  A    between atoms: _507  and  _509
REMARK  205  A    between atoms: _509  and  _510
REMARK  206  A    between atoms: _509  and  _512
REMARK  207  A    between atoms: _512  and  _513
REMARK  208  A    between atoms: _513  and  _514
REMARK  209  A    between atoms: _519  and  _521
REMARK  210  A    between atoms: _521  and  _522
REMARK  211  A    between atoms: _521  and  _524
REMARK  212  A    between atoms: _524  and  _525
REMARK  213  A    between atoms: _527  and  _529
REMARK  214  A    between atoms: _529  and  _530
REMARK  215  A    between atoms: _529  and  _532
REMARK  216  A    between atoms: _532  and  _533
REMARK  217  A    between atoms: _538  and  _540
REMARK  218  A    between atoms: _540  and  _541
REMARK  219  A    between atoms: _540  and  _543
REMARK  220  A    between atoms: _543  and  _544
REMARK  221  A    between atoms: _546  and  _548
REMARK  222  A    between atoms: _548  and  _549
REMARK  223  A    between atoms: _548  and  _551
REMARK  224  A    between atoms: _551  and  _552
REMARK  225  A    between atoms: _555  and  _557
REMARK  226  A    between atoms: _557  and  _558
REMARK  227  A    between atoms: _557  and  _560
REMARK  228  A    between atoms: _560  and  _561
REMARK  229  A    between atoms: _567  and  _569
REMARK  230  A    between atoms: _569  and  _570
REMARK  231  A    between atoms: _569  and  _572
REMARK  232  A    between atoms: _572  and  _573
REMARK  233  A    between atoms: _575  and  _577
REMARK  234  A    between atoms: _577  and  _578
REMARK  235  A    between atoms: _577  and  _580
REMARK  236  A    between atoms: _580  and  _581
REMARK  237  A    between atoms: _584  and  _586
REMARK  238  A    between atoms: _586  and  _587
REMARK  239  A    between atoms: _586  and  _589
REMARK  240  A    between atoms: _589  and  _590
REMARK  241  A    between atoms: _596  and  _598
REMARK  242  A    between atoms: _598  and  _599
REMARK  243  A    between atoms: _601  and  _603
REMARK  244  A    between atoms: _603  and  _604
REMARK  245  A    between atoms: _603  and  _606
REMARK  246  A    between atoms: _606  and  _607
REMARK                            x       y       z     vdW  Elec       q    Type
REMARK                         _______ _______ _______ _____ _____    ______ ____
ROOT
ATOM      1  CA  THR A   4      25.005  17.793  17.221  0.00  0.00    +0.176 C 
ENDROOT
BRANCH   1   2
ATOM      2  C   THR A   4      24.809  17.611  18.743  0.00  0.00    +0.243 C 
ATOM      3  O   THR A   4      24.969  18.653  19.420  0.00  0.00    -0.273 OA
ATOM      4  N   GLY A   5      24.654  16.423  19.306  0.00  0.00    -0.295 N 
ATOM      5  H   GLY A   5      24.641  15.592  18.681  0.00  0.00    +0.150 HD
BRANCH   4   6
ATOM      6  CA  GLY A   5      24.502  16.195  20.724  0.00  0.00    +0.176 C 
BRANCH   6   7
ATOM      7  C   GLY A   5      25.781  15.680  21.405  0.00  0.00    +0.243 C 
ATOM      8  O   GLY A   5      25.681  15.435  22.614  0.00  0.00    -0.273 OA
ATOM      9  N   SER A   6      26.823  15.589  20.615  0.00  0.00    -0.295 N 
ATOM     10  H   SER A   6      26.777  15.795  19.597  0.00  0.00    +0.150 HD
BRANCH   9  11
ATOM     11  CA  SER A   6      28.130  15.150  21.323  0.00  0.00    +0.178 C 
BRANCH  11  12
ATOM     12  C   SER A   6      29.271  15.802  20.541  0.00  0.00    +0.243 C 
ATOM     13  N   ALA A   7      30.461  15.857  21.242  0.00  0.00    -0.297 N 
ATOM     14  H   ALA A   7      30.537  15.423  22.184  0.00  0.00    +0.150 HD
ATOM     15  O   SER A   6      29.159  16.350  19.454  0.00  0.00    -0.273 OA
BRANCH  13  16
ATOM     16  CA  ALA A   7      31.615  16.533  20.643  0.00  0.00    +0.149 C 
ATOM     17  CB  ALA A   7      32.040  17.626  21.645  0.00  0.00    +0.031 C 
BRANCH  16  18
ATOM     18  C   ALA A   7      32.813  15.631  20.302  0.00  0.00    +0.241 C 
ATOM     19  O   ALA A   7      33.901  16.231  20.257  0.00  0.00    -0.273 OA
ATOM     20  N   ASP A   8      32.651  14.384  20.105  0.00  0.00    -0.298 N 
ATOM     21  H   ASP A   8      31.687  14.000  20.180  0.00  0.00    +0.150 HD
BRANCH  20  22
ATOM     22  CA  ASP A   8      33.747  13.446  19.776  0.00  0.00    +0.148 C 
BRANCH  22  23
ATOM     23  C   ASP A   8      33.569  12.910  18.344  0.00  0.00    +0.227 C 
ATOM     24  O   ASP A   8      32.469  12.518  18.027  0.00  0.00    -0.286 OA
ENDBRANCH  22  23
BRANCH  22  25
ATOM     25  CB  ASP A   8      33.762  12.233  20.743  0.00  0.00    +0.142 C 
BRANCH  25  26
ATOM     26  CG  ASP A   8      34.233  12.645  22.116  0.00  0.00    +0.367 C 
ATOM     27  OD2 ASP A   8      35.169  12.058  22.678  0.00  0.00    -0.246 OA
ATOM     28  OD1 ASP A   8      33.674  13.607  22.640  0.00  0.00    -0.246 OA
ENDBRANCH  25  26
ENDBRANCH  22  25
ENDBRANCH  20  22
ENDBRANCH  16  18
ENDBRANCH  13  16
ENDBRANCH  11  12
BRANCH  11  29
ATOM     29  CB  SER A   6      28.219  13.654  21.358  0.00  0.00    +0.166 C 
BRANCH  29  30
ATOM     30  OG  SER A   6      28.491  13.194  20.014  0.00  0.00    -0.380 OA
ATOM     31  H   SER A   6      28.554  12.206  20.011  0.00  0.00    +0.211 HD
ENDBRANCH  29  30
ENDBRANCH  11  29
ENDBRANCH   9  11
ENDBRANCH   6   7
ENDBRANCH   4   6
ENDBRANCH   1   2
BRANCH   1  34
ATOM     32  C   ASP A   3      25.888  15.604  16.616  0.00  0.00    +0.241 C 
ATOM     33  O   ASP A   3      26.890  15.822  17.263  0.00  0.00    -0.273 OA
ATOM     34  N   THR A   4      24.859  16.470  16.564  0.00  0.00    -0.295 N 
ATOM     35  H   THR A   4      23.978  16.217  16.073  0.00  0.00    +0.150 HD
BRANCH  32  36
ATOM     36  CA  ASP A   3      25.689  14.261  15.949  0.00  0.00    +0.160 C 
BRANCH  36  38
ATOM     37  C   PHE A   2      25.808  13.817  13.571  0.00  0.00    +0.241 C 
ATOM     38  N   ASP A   3      26.395  14.158  14.710  0.00  0.00    -0.297 N 
ATOM     39  H   ASP A   3      27.415  14.360  14.702  0.00  0.00    +0.150 HD
ATOM     40  O   PHE A   2      24.581  13.708  13.450  0.00  0.00    -0.273 OA
BRANCH  37  41
ATOM     41  CA  PHE A   2      26.729  13.570  12.376  0.00  0.00    +0.153 C 
BRANCH  41  44
ATOM     42  C   ASN A   1      26.820  11.123  12.527  0.00  0.00    +0.239 C 
ATOM     43  O   ASN A   1      27.508  11.168  13.560  0.00  0.00    -0.274 OA
ATOM     44  N   PHE A   2      26.431  12.194  11.877  0.00  0.00    -0.297 N 
ATOM     45  H   PHE A   2      25.900  12.082  10.990  0.00  0.00    +0.150 HD
BRANCH  42  46
ATOM     46  CA  ASN A   1      26.470   9.754  11.943  0.00  0.00    +0.154 C 
BRANCH  46  47
ATOM     47  N   ASN A   1      27.743   9.139  11.454  0.00  0.00    -0.238 NA
ATOM     48  H   ASN A   1      28.350   8.624  12.124  0.00  0.00    +0.142 HD
ENDBRANCH  46  47
BRANCH  46  49
ATOM     49  CB  ASN A   1      25.973   8.685  12.914  0.00  0.00    +0.111 C 
BRANCH  49  50
ATOM     50  CG  ASN A   1      24.689   9.057  13.595  0.00  0.00    +0.221 C 
ATOM     51  ND2 ASN A   1      24.118   8.240  14.432  0.00  0.00    -0.329 N 
ATOM     52 HD21 ASN A   1      23.238   8.518  14.911  0.00  0.00    +0.145 HD
ATOM     53 HD22 ASN A   1      24.542   7.309  14.622  0.00  0.00    +0.145 HD
ATOM     54  OD1 ASN A   1      24.197  10.192  13.346  0.00  0.00    -0.275 OA
ENDBRANCH  49  50
ENDBRANCH  46  49
ENDBRANCH  42  46
ENDBRANCH  41  44
BRANCH  41  55
ATOM     55  CB  PHE A   2      26.498  14.605  11.279  0.00  0.00    +0.055 C 
BRANCH  55  56
ATOM     56  CG  PHE A   2      27.561  14.673  10.232  0.00  0.00    -0.020 A 
ATOM     57  CD2 PHE A   2      28.358  13.520   9.956  0.00  0.00    -0.004 A 
ATOM     58  CE2 PHE A   2      29.354  13.531   9.003  0.00  0.00    -0.000 A 
ATOM     59  CZ  PHE A   2      29.628  14.711   8.322  0.00  0.00    -0.000 A 
ATOM     60  CE1 PHE A   2      28.829  15.837   8.572  0.00  0.00    -0.000 A 
ATOM     61  CD1 PHE A   2      27.798  15.846   9.519  0.00  0.00    -0.004 A 
ENDBRANCH  55  56
ENDBRANCH  41  55
ENDBRANCH  37  41
ENDBRANCH  36  38
BRANCH  36  62
ATOM     62  CB  ASP A   3      26.224  13.039  16.814  0.00  0.00    +0.143 C 
BRANCH  62  63
ATOM     63  CG  ASP A   3      25.497  13.066  18.133  0.00  0.00    +0.367 C 
ATOM     64  OD2 ASP A   3      25.955  12.340  19.044  0.00  0.00    -0.246 OA
ATOM     65  OD1 ASP A   3      24.479  13.828  18.325  0.00  0.00    -0.246 OA
ENDBRANCH  62  63
ENDBRANCH  36  62
ENDBRANCH  32  36
ENDBRANCH   1  34
BRANCH   1  66
ATOM     66  CB  THR A   4      24.009  18.862  16.578  0.00  0.00    +0.137 C 
ATOM     67  CG2 THR A   4      24.163  19.058  15.082  0.00  0.00    +0.034 C 
BRANCH  66  68
ATOM     68  OG1 THR A   4      22.698  18.338  16.857  0.00  0.00    -0.382 OA
ATOM     69  HG1 THR A   4      22.577  18.260  17.836  0.00  0.00    +0.210 HD
ENDBRANCH  66  68
ENDBRANCH   1  66
TORSDOF 28
REMARK  Name = ../refined-set-2016/1ppl/1ppl_pocket.pdb
REMARK  246 active torsions:
REMARK  status: ('A' for Active; 'I' for Inactive)
REMARK    1  A    between atoms: _1  and  _3
REMARK    2  A    between atoms: _3  and  _4
REMARK    3  A    between atoms: _3  and  _6
REMARK    4  A    between atoms: _6  and  _7
REMARK    5  A    between atoms: _10  and  _12
REMARK    6  A    between atoms: _12  and  _13
REMARK    7  A    between atoms: _16  and  _18
REMARK    8  A    between atoms: _18  and  _19
REMARK    9  A    between atoms: _18  and  _21
REMARK   10  A    between atoms: _21  and  _22
REMARK   11  A    between atoms: _27  and  _29
REMARK   12  A    between atoms: _29  and  _30
REMARK   13  A    between atoms: _29  and  _32
REMARK   14  A    between atoms: _32  and  _33
REMARK   15  A    between atoms: _36  and  _38
REMARK   16  A    between atoms: _38  and  _39
REMARK   17  A    between atoms: _38  and  _41
REMARK   18  A    between atoms: _41  and  _42
REMARK   19  A    between atoms: _42  and  _43
REMARK   20  A    between atoms: _46  and  _48
REMARK   21  A    between atoms: _48  and  _49
REMARK   22  A    between atoms: _48  and  _51
REMARK   23  A    between atoms: _51  and  _52
REMARK   24  A    between atoms: _52  and  _53
REMARK   25  A    between atoms: _56  and  _58
REMARK   26  A    between atoms: _58  and  _59
REMARK   27  A    between atoms: _58  and  _61
REMARK   28  A    between atoms: _61  and  _62
REMARK   29  A    between atoms: _67  and  _68
REMARK   30  A    between atoms: _70  and  _72
REMARK   31  A    between atoms: _72  and  _73
REMARK   32  A    between atoms: _72  and  _75
REMARK   33  A    between atoms: _75  and  _76
REMARK   34  A    between atoms: _81  and  _83
REMARK   35  A    between atoms: _83  and  _84
REMARK   36  A    between atoms: _83  and  _86
REMARK   37  A    between atoms: _86  and  _87
REMARK   38  A    between atoms: _93  and  _95
REMARK   39  A    between atoms: _95  and  _96
REMARK   40  A    between atoms: _95  and  _98
REMARK   41  A    between atoms: _98  and  _99
REMARK   42  A    between atoms: _102  and  _104
REMARK   43  A    between atoms: _104  and  _105
REMARK   44  A    between atoms: _104  and  _107
REMARK   45  A    between atoms: _107  and  _108
REMARK   46  A    between atoms: _111  and  _113
REMARK   47  A    between atoms: _113  and  _114
REMARK   48  A    between atoms: _116  and  _118
REMARK   49  A    between atoms: _118  and  _119
REMARK   50  A    between atoms: _118  and  _121
REMARK   51  A    between atoms: _121  and  _122
REMARK   52  A    between atoms: _124  and  _126
REMARK   53  A    between atoms: _126  and  _127
REMARK   54  A    between atoms: _130  and  _132
REMARK   55  A    between atoms: _132  and  _133
REMARK   56  A    between atoms: _132  and  _135
REMARK   57  A    between atoms: _135  and  _136
REMARK   58  A    between atoms: _139  and  _141
REMARK   59  A    between atoms: _141  and  _142
REMARK   60  A    between atoms: _141  and  _144
REMARK   61  A    between atoms: _144  and  _145
REMARK   62  A    between atoms: _155  and  _157
REMARK   63  A    between atoms: _157  and  _158
REMARK   64  A    between atoms: _157  and  _160
REMARK   65  A    between atoms: _160  and  _161
REMARK   66  A    between atoms: _164  and  _166
REMARK   67  A    between atoms: _166  and  _167
REMARK   68  A    between atoms: _166  and  _169
REMARK   69  A    between atoms: _169  and  _170
REMARK   70  A    between atoms: _172  and  _174
REMARK   71  A    between atoms: _174  and  _175
REMARK   72  A    between atoms: _174  and  _177
REMARK   73  A    between atoms: _177  and  _178
REMARK   74  A    between atoms: _183  and  _184
REMARK   75  A    between atoms: _186  and  _188
REMARK   76  A    between atoms: _188  and  _189
REMARK   77  A    between atoms: _191  and  _193
REMARK   78  A    between atoms: _193  and  _194
REMARK   79  A    between atoms: _193  and  _196
REMARK   80  A    between atoms: _196  and  _197
REMARK   81  A    between atoms: _200  and  _202
REMARK   82  A    between atoms: _202  and  _203
REMARK   83  A    between atoms: _205  and  _207
REMARK   84  A    between atoms: _207  and  _208
REMARK   85  A    between atoms: _207  and  _210
REMARK   86  A    between atoms: _210  and  _211
REMARK   87  A    between atoms: _213  and  _215
REMARK   88  A    between atoms: _215  and  _216
REMARK   89  A    between atoms: _215  and  _218
REMARK   90  A    between atoms: _218  and  _219
REMARK   91  A    between atoms: _221  and  _223
REMARK   92  A    between atoms: _223  and  _224
REMARK   93  A    between atoms: _223  and  _226
REMARK   94  A    between atoms: _226  and  _227
REMARK   95  A    between atoms: _227  and  _228
REMARK   96  A    between atoms: _233  and  _235
REMARK   97  A    between atoms: _235  and  _236
REMARK   98  A    between atoms: _235  and  _238
REMARK   99  A    between atoms: _238  and  _239
REMARK  100  A    between atoms: _245  and  _247
REMARK  101  A    between atoms: _247  and  _248
REMARK  102  A    between atoms: _247  and  _250
REMARK  103  A    between atoms: _250  and  _251
REMARK  104  A    between atoms: _254  and  _256
REMARK  105  A    between atoms: _256  and  _257
REMARK  106  A    between atoms: _256  and  _259
REMARK  107  A    between atoms: _259  and  _260
REMARK  108  A    between atoms: _265  and  _267
REMARK  109  A    between atoms: _267  and  _268
REMARK  110  A    between atoms: _267  and  _270
REMARK  111  A    between atoms: _270  and  _271
REMARK  112  A    between atoms: _276  and  _278
REMARK  113  A    between atoms: _278  and  _279
REMARK  114  A    between atoms: _281  and  _283
REMARK  115  A    between atoms: _283  and  _284
REMARK  116  A    between atoms: _283  and  _286
REMARK  117  A    between atoms: _286  and  _287
REMARK  118  A    between atoms: _290  and  _292
REMARK  119  A    between atoms: _292  and  _293
REMARK  120  A    between atoms: _292  and  _295
REMARK  121  A    between atoms: _295  and  _296
REMARK  122  A    between atoms: _299  and  _301
REMARK  123  A    between atoms: _301  and  _302
REMARK  124  A    between atoms: _304  and  _306
REMARK  125  A    between atoms: _306  and  _307
REMARK  126  A    between atoms: _306  and  _309
REMARK  127  A    between atoms: _309  and  _310
REMARK  128  A    between atoms: _313  and  _315
REMARK  129  A    between atoms: _315  and  _316
REMARK  130  A    between atoms: _319  and  _321
REMARK  131  A    between atoms: _321  and  _322
REMARK  132  A    between atoms: _321  and  _324
REMARK  133  A    between atoms: _324  and  _325
REMARK  134  A    between atoms: _328  and  _330
REMARK  135  A    between atoms: _330  and  _331
REMARK  136  A    between atoms: _330  and  _333
REMARK  137  A    between atoms: _333  and  _334
REMARK  138  A    between atoms: _337  and  _339
REMARK  139  A    between atoms: _339  and  _340
REMARK  140  A    between atoms: _339  and  _342
REMARK  141  A    between atoms: _342  and  _343
REMARK  142  A    between atoms: _349  and  _351
REMARK  143  A    between atoms: _351  and  _352
REMARK  144  A    between atoms: _351  and  _354
REMARK  145  A    between atoms: _354  and  _355
REMARK  146  A    between atoms: _365  and  _367
REMARK  147  A    between atoms: _367  and  _368
REMARK  148  A    between atoms: _367  and  _370
REMARK  149  A    between atoms: _370  and  _371
REMARK  150  A    between atoms: _374  and  _376
REMARK  151  A    between atoms: _376  and  _377
REMARK  152  A    between atoms: _380  and  _382
REMARK  153  A    between atoms: _382  and  _383
REMARK  154  A    between atoms: _382  and  _385
REMARK  155  A    between atoms: _385  and  _386
REMARK  156  A    between atoms: _389  and  _391
REMARK  157  A    between atoms: _391  and  _392
REMARK  158  A    between atoms: _391  and  _394
REMARK  159  A    between atoms: _394  and  _395
REMARK  160  A    between atoms: _398  and  _400
REMARK  161  A    between atoms: _400  and  _401
REMARK  162  A    between atoms: _403  and  _405
REMARK  163  A    between atoms: _405  and  _406
REMARK  164  A    between atoms: _405  and  _408
REMARK  165  A    between atoms: _408  and  _409
REMARK  166  A    between atoms: _412  and  _414
REMARK  167  A    between atoms: _414  and  _415
REMARK  168  A    between atoms: _414  and  _417
REMARK  169  A    between atoms: _417  and  _418
REMARK  170  A    between atoms: _421  and  _423
REMARK  171  A    between atoms: _423  and  _424
REMARK  172  A    between atoms: _423  and  _426
REMARK  173  A    between atoms: _426  and  _427
REMARK  174  A    between atoms: _430  and  _432
REMARK  175  A    between atoms: _432  and  _433
REMARK  176  A    between atoms: _432  and  _435
REMARK  177  A    between atoms: _435  and  _436
REMARK  178  A    between atoms: _439  and  _441
REMARK  179  A    between atoms: _441  and  _442
REMARK  180  A    between atoms: _441  and  _444
REMARK  181  A    between atoms: _444  and  _445
REMARK  182  A    between atoms: _448  and  _450
REMARK  183  A    between atoms: _450  and  _451
REMARK  184  A    between atoms: _454  and  _456
REMARK  185  A    between atoms: _456  and  _457
REMARK  186  A    between atoms: _459  and  _461
REMARK  187  A    between atoms: _461  and  _462
REMARK  188  A    between atoms: _464  and  _466
REMARK  189  A    between atoms: _466  and  _467
REMARK  190  A    between atoms: _466  and  _469
REMARK  191  A    between atoms: _469  and  _470
REMARK  192  A    between atoms: _475  and  _476
REMARK  193  A    between atoms: _479  and  _480
REMARK  194  A    between atoms: _485  and  _487
REMARK  195  A    between atoms: _487  and  _488
REMARK  196  A    between atoms: _487  and  _490
REMARK  197  A    between atoms: _490  and  _491
REMARK  198  A    between atoms: _493  and  _495
REMARK  199  A    between atoms: _495  and  _496
REMARK  200  A    between atoms: _495  and  _498
REMARK  201  A    between atoms: _498  and  _499
REMARK  202  A    between atoms: _502  and  _504
REMARK  203  A    between atoms: _504  and  _505
REMARK  204  A    between atoms: _507  and  _509
REMARK  205  A    between atoms: _509  and  _510
REMARK  206  A    between atoms: _509  and  _512
REMARK  207  A    between atoms: _512  and  _513
REMARK  208  A    between atoms: _513  and  _514
REMARK  209  A    between atoms: _519  and  _521
REMARK  210  A    between atoms: _521  and  _522
REMARK  211  A    between atoms: _521  and  _524
REMARK  212  A    between atoms: _524  and  _525
REMARK  213  A    between atoms: _527  and  _529
REMARK  214  A    between atoms: _529  and  _530
REMARK  215  A    between atoms: _529  and  _532
REMARK  216  A    between atoms: _532  and  _533
REMARK  217  A    between atoms: _538  and  _540
REMARK  218  A    between atoms: _540  and  _541
REMARK  219  A    between atoms: _540  and  _543
REMARK  220  A    between atoms: _543  and  _544
REMARK  221  A    between atoms: _546  and  _548
REMARK  222  A    between atoms: _548  and  _549
REMARK  223  A    between atoms: _548  and  _551
REMARK  224  A    between atoms: _551  and  _552
REMARK  225  A    between atoms: _555  and  _557
REMARK  226  A    between atoms: _557  and  _558
REMARK  227  A    between atoms: _557  and  _560
REMARK  228  A    between atoms: _560  and  _561
REMARK  229  A    between atoms: _567  and  _569
REMARK  230  A    between atoms: _569  and  _570
REMARK  231  A    between atoms: _569  and  _572
REMARK  232  A    between atoms: _572  and  _573
REMARK  233  A    between atoms: _575  and  _577
REMARK  234  A    between atoms: _577  and  _578
REMARK  235  A    between atoms: _577  and  _580
REMARK  236  A    between atoms: _580  and  _581
REMARK  237  A    between atoms: _584  and  _586
REMARK  238  A    between atoms: _586  and  _587
REMARK  239  A    between atoms: _586  and  _589
REMARK  240  A    between atoms: _589  and  _590
REMARK  241  A    between atoms: _596  and  _598
REMARK  242  A    between atoms: _598  and  _599
REMARK  243  A    between atoms: _601  and  _603
REMARK  244  A    between atoms: _603  and  _604
REMARK  245  A    between atoms: _603  and  _606
REMARK  246  A    between atoms: _606  and  _607
REMARK                            x       y       z     vdW  Elec       q    Type
REMARK                         _______ _______ _______ _____ _____    ______ ____
ROOT
ATOM      1  CG  TRP A   1      33.512   7.494  18.310  0.00  0.00    -0.002 A 
ATOM      2  CD1 TRP A   1      32.472   8.157  18.880  0.00  0.00    +0.068 A 
ATOM      3  NE1 TRP A   1      31.343   7.296  18.933  0.00  0.00    -0.352 N 
ATOM      4  HE1 TRP A   1      30.428   7.528  19.369  0.00  0.00    +0.166 HD
ATOM      5  CE2 TRP A   1      31.648   6.133  18.329  0.00  0.00    +0.056 A 
ATOM      6  CZ2 TRP A   1      30.879   4.998  18.177  0.00  0.00    +0.017 A 
ATOM      7  CH2 TRP A   1      31.514   3.868  17.574  0.00  0.00    +0.001 A 
ATOM      8  CZ3 TRP A   1      32.806   3.943  17.154  0.00  0.00    +0.000 A 
ATOM      9  CE3 TRP A   1      33.594   5.086  17.315  0.00  0.00    +0.001 A 
ATOM     10  CD2 TRP A   1      33.025   6.154  17.935  0.00  0.00    +0.013 A 
ENDROOT
BRANCH   1  11
ATOM     11  CB  TRP A   1      34.880   8.014  18.075  0.00  0.00    +0.053 C 
BRANCH  11  12
ATOM     12  CA  TRP A   1      35.231   8.572  16.742  0.00  0.00    +0.137 C 
BRANCH  12  13
ATOM     13  N   TRP A   1      34.652   9.875  16.480  0.00  0.00    -0.239 NA
ATOM     14  H   TRP A   1      33.629   9.951  16.307  0.00  0.00    +0.142 HD
ENDBRANCH  12  13
BRANCH  12  15
ATOM     15  C   TRP A   1      34.852   7.666  15.578  0.00  0.00    +0.224 C 
ATOM     16  O   TRP A   1      33.765   7.833  15.033  0.00  0.00    -0.287 OA
ENDBRANCH  12  15
ENDBRANCH  11  12
ENDBRANCH   1  11
TORSDOF 4
REMARK  Name = ../refined-set-2016/1ppl/1ppl_pocket.pdb
REMARK  246 active torsions:
REMARK  status: ('A' for Active; 'I' for Inactive)
REMARK    1  A    between atoms: _1  and  _3
REMARK    2  A    between atoms: _3  and  _4
REMARK    3  A    between atoms: _3  and  _6
REMARK    4  A    between atoms: _6  and  _7
REMARK    5  A    between atoms: _10  and  _12
REMARK    6  A    between atoms: _12  and  _13
REMARK    7  A    between atoms: _16  and  _18
REMARK    8  A    between atoms: _18  and  _19
REMARK    9  A    between atoms: _18  and  _21
REMARK   10  A    between atoms: _21  and  _22
REMARK   11  A    between atoms: _27  and  _29
REMARK   12  A    between atoms: _29  and  _30
REMARK   13  A    between atoms: _29  and  _32
REMARK   14  A    between atoms: _32  and  _33
REMARK   15  A    between atoms: _36  and  _38
REMARK   16  A    between atoms: _38  and  _39
REMARK   17  A    between atoms: _38  and  _41
REMARK   18  A    between atoms: _41  and  _42
REMARK   19  A    between atoms: _42  and  _43
REMARK   20  A    between atoms: _46  and  _48
REMARK   21  A    between atoms: _48  and  _49
REMARK   22  A    between atoms: _48  and  _51
REMARK   23  A    between atoms: _51  and  _52
REMARK   24  A    between atoms: _52  and  _53
REMARK   25  A    between atoms: _56  and  _58
REMARK   26  A    between atoms: _58  and  _59
REMARK   27  A    between atoms: _58  and  _61
REMARK   28  A    between atoms: _61  and  _62
REMARK   29  A    between atoms: _67  and  _68
REMARK   30  A    between atoms: _70  and  _72
REMARK   31  A    between atoms: _72  and  _73
REMARK   32  A    between atoms: _72  and  _75
REMARK   33  A    between atoms: _75  and  _76
REMARK   34  A    between atoms: _81  and  _83
REMARK   35  A    between atoms: _83  and  _84
REMARK   36  A    between atoms: _83  and  _86
REMARK   37  A    between atoms: _86  and  _87
REMARK   38  A    between atoms: _93  and  _95
REMARK   39  A    between atoms: _95  and  _96
REMARK   40  A    between atoms: _95  and  _98
REMARK   41  A    between atoms: _98  and  _99
REMARK   42  A    between atoms: _102  and  _104
REMARK   43  A    between atoms: _104  and  _105
REMARK   44  A    between atoms: _104  and  _107
REMARK   45  A    between atoms: _107  and  _108
REMARK   46  A    between atoms: _111  and  _113
REMARK   47  A    between atoms: _113  and  _114
REMARK   48  A    between atoms: _116  and  _118
REMARK   49  A    between atoms: _118  and  _119
REMARK   50  A    between atoms: _118  and  _121
REMARK   51  A    between atoms: _121  and  _122
REMARK   52  A    between atoms: _124  and  _126
REMARK   53  A    between atoms: _126  and  _127
REMARK   54  A    between atoms: _130  and  _132
REMARK   55  A    between atoms: _132  and  _133
REMARK   56  A    between atoms: _132  and  _135
REMARK   57  A    between atoms: _135  and  _136
REMARK   58  A    between atoms: _139  and  _141
REMARK   59  A    between atoms: _141  and  _142
REMARK   60  A    between atoms: _141  and  _144
REMARK   61  A    between atoms: _144  and  _145
REMARK   62  A    between atoms: _155  and  _157
REMARK   63  A    between atoms: _157  and  _158
REMARK   64  A    between atoms: _157  and  _160
REMARK   65  A    between atoms: _160  and  _161
REMARK   66  A    between atoms: _164  and  _166
REMARK   67  A    between atoms: _166  and  _167
REMARK   68  A    between atoms: _166  and  _169
REMARK   69  A    between atoms: _169  and  _170
REMARK   70  A    between atoms: _172  and  _174
REMARK   71  A    between atoms: _174  and  _175
REMARK   72  A    between atoms: _174  and  _177
REMARK   73  A    between atoms: _177  and  _178
REMARK   74  A    between atoms: _183  and  _184
REMARK   75  A    between atoms: _186  and  _188
REMARK   76  A    between atoms: _188  and  _189
REMARK   77  A    between atoms: _191  and  _193
REMARK   78  A    between atoms: _193  and  _194
REMARK   79  A    between atoms: _193  and  _196
REMARK   80  A    between atoms: _196  and  _197
REMARK   81  A    between atoms: _200  and  _202
REMARK   82  A    between atoms: _202  and  _203
REMARK   83  A    between atoms: _205  and  _207
REMARK   84  A    between atoms: _207  and  _208
REMARK   85  A    between atoms: _207  and  _210
REMARK   86  A    between atoms: _210  and  _211
REMARK   87  A    between atoms: _213  and  _215
REMARK   88  A    between atoms: _215  and  _216
REMARK   89  A    between atoms: _215  and  _218
REMARK   90  A    between atoms: _218  and  _219
REMARK   91  A    between atoms: _221  and  _223
REMARK   92  A    between atoms: _223  and  _224
REMARK   93  A    between atoms: _223  and  _226
REMARK   94  A    between atoms: _226  and  _227
REMARK   95  A    between atoms: _227  and  _228
REMARK   96  A    between atoms: _233  and  _235
REMARK   97  A    between atoms: _235  and  _236
REMARK   98  A    between atoms: _235  and  _238
REMARK   99  A    between atoms: _238  and  _239
REMARK  100  A    between atoms: _245  and  _247
REMARK  101  A    between atoms: _247  and  _248
REMARK  102  A    between atoms: _247  and  _250
REMARK  103  A    between atoms: _250  and  _251
REMARK  104  A    between atoms: _254  and  _256
REMARK  105  A    between atoms: _256  and  _257
REMARK  106  A    between atoms: _256  and  _259
REMARK  107  A    between atoms: _259  and  _260
REMARK  108  A    between atoms: _265  and  _267
REMARK  109  A    between atoms: _267  and  _268
REMARK  110  A    between atoms: _267  and  _270
REMARK  111  A    between atoms: _270  and  _271
REMARK  112  A    between atoms: _276  and  _278
REMARK  113  A    between atoms: _278  and  _279
REMARK  114  A    between atoms: _281  and  _283
REMARK  115  A    between atoms: _283  and  _284
REMARK  116  A    between atoms: _283  and  _286
REMARK  117  A    between atoms: _286  and  _287
REMARK  118  A    between atoms: _290  and  _292
REMARK  119  A    between atoms: _292  and  _293
REMARK  120  A    between atoms: _292  and  _295
REMARK  121  A    between atoms: _295  and  _296
REMARK  122  A    between atoms: _299  and  _301
REMARK  123  A    between atoms: _301  and  _302
REMARK  124  A    between atoms: _304  and  _306
REMARK  125  A    between atoms: _306  and  _307
REMARK  126  A    between atoms: _306  and  _309
REMARK  127  A    between atoms: _309  and  _310
REMARK  128  A    between atoms: _313  and  _315
REMARK  129  A    between atoms: _315  and  _316
REMARK  130  A    between atoms: _319  and  _321
REMARK  131  A    between atoms: _321  and  _322
REMARK  132  A    between atoms: _321  and  _324
REMARK  133  A    between atoms: _324  and  _325
REMARK  134  A    between atoms: _328  and  _330
REMARK  135  A    between atoms: _330  and  _331
REMARK  136  A    between atoms: _330  and  _333
REMARK  137  A    between atoms: _333  and  _334
REMARK  138  A    between atoms: _337  and  _339
REMARK  139  A    between atoms: _339  and  _340
REMARK  140  A    between atoms: _339  and  _342
REMARK  141  A    between atoms: _342  and  _343
REMARK  142  A    between atoms: _349  and  _351
REMARK  143  A    between atoms: _351  and  _352
REMARK  144  A    between atoms: _351  and  _354
REMARK  145  A    between atoms: _354  and  _355
REMARK  146  A    between atoms: _365  and  _367
REMARK  147  A    between atoms: _367  and  _368
REMARK  148  A    between atoms: _367  and  _370
REMARK  149  A    between atoms: _370  and  _371
REMARK  150  A    between atoms: _374  and  _376
REMARK  151  A    between atoms: _376  and  _377
REMARK  152  A    between atoms: _380  and  _382
REMARK  153  A    between atoms: _382  and  _383
REMARK  154  A    between atoms: _382  and  _385
REMARK  155  A    between atoms: _385  and  _386
REMARK  156  A    between atoms: _389  and  _391
REMARK  157  A    between atoms: _391  and  _392
REMARK  158  A    between atoms: _391  and  _394
REMARK  159  A    between atoms: _394  and  _395
REMARK  160  A    between atoms: _398  and  _400
REMARK  161  A    between atoms: _400  and  _401
REMARK  162  A    between atoms: _403  and  _405
REMARK  163  A    between atoms: _405  and  _406
REMARK  164  A    between atoms: _405  and  _408
REMARK  165  A    between atoms: _408  and  _409
REMARK  166  A    between atoms: _412  and  _414
REMARK  167  A    between atoms: _414  and  _415
REMARK  168  A    between atoms: _414  and  _417
REMARK  169  A    between atoms: _417  and  _418
REMARK  170  A    between atoms: _421  and  _423
REMARK  171  A    between atoms: _423  and  _424
REMARK  172  A    between atoms: _423  and  _426
REMARK  173  A    between atoms: _426  and  _427
REMARK  174  A    between atoms: _430  and  _432
REMARK  175  A    between atoms: _432  and  _433
REMARK  176  A    between atoms: _432  and  _435
REMARK  177  A    between atoms: _435  and  _436
REMARK  178  A    between atoms: _439  and  _441
REMARK  179  A    between atoms: _441  and  _442
REMARK  180  A    between atoms: _441  and  _444
REMARK  181  A    between atoms: _444  and  _445
REMARK  182  A    between atoms: _448  and  _450
REMARK  183  A    between atoms: _450  and  _451
REMARK  184  A    between atoms: _454  and  _456
REMARK  185  A    between atoms: _456  and  _457
REMARK  186  A    between atoms: _459  and  _461
REMARK  187  A    between atoms: _461  and  _462
REMARK  188  A    between atoms: _464  and  _466
REMARK  189  A    between atoms: _466  and  _467
REMARK  190  A    between atoms: _466  and  _469
REMARK  191  A    between atoms: _469  and  _470
REMARK  192  A    between atoms: _475  and  _476
REMARK  193  A    between atoms: _479  and  _480
REMARK  194  A    between atoms: _485  and  _487
REMARK  195  A    between atoms: _487  and  _488
REMARK  196  A    between atoms: _487  and  _490
REMARK  197  A    between atoms: _490  and  _491
REMARK  198  A    between atoms: _493  and  _495
REMARK  199  A    between atoms: _495  and  _496
REMARK  200  A    between atoms: _495  and  _498
REMARK  201  A    between atoms: _498  and  _499
REMARK  202  A    between atoms: _502  and  _504
REMARK  203  A    between atoms: _504  and  _505
REMARK  204  A    between atoms: _507  and  _509
REMARK  205  A    between atoms: _509  and  _510
REMARK  206  A    between atoms: _509  and  _512
REMARK  207  A    between atoms: _512  and  _513
REMARK  208  A    between atoms: _513  and  _514
REMARK  209  A    between atoms: _519  and  _521
REMARK  210  A    between atoms: _521  and  _522
REMARK  211  A    between atoms: _521  and  _524
REMARK  212  A    between atoms: _524  and  _525
REMARK  213  A    between atoms: _527  and  _529
REMARK  214  A    between atoms: _529  and  _530
REMARK  215  A    between atoms: _529  and  _532
REMARK  216  A    between atoms: _532  and  _533
REMARK  217  A    between atoms: _538  and  _540
REMARK  218  A    between atoms: _540  and  _541
REMARK  219  A    between atoms: _540  and  _543
REMARK  220  A    between atoms: _543  and  _544
REMARK  221  A    between atoms: _546  and  _548
REMARK  222  A    between atoms: _548  and  _549
REMARK  223  A    between atoms: _548  and  _551
REMARK  224  A    between atoms: _551  and  _552
REMARK  225  A    between atoms: _555  and  _557
REMARK  226  A    between atoms: _557  and  _558
REMARK  227  A    between atoms: _557  and  _560
REMARK  228  A    between atoms: _560  and  _561
REMARK  229  A    between atoms: _567  and  _569
REMARK  230  A    between atoms: _569  and  _570
REMARK  231  A    between atoms: _569  and  _572
REMARK  232  A    between atoms: _572  and  _573
REMARK  233  A    between atoms: _575  and  _577
REMARK  234  A    between atoms: _577  and  _578
REMARK  235  A    between atoms: _577  and  _580
REMARK  236  A    between atoms: _580  and  _581
REMARK  237  A    between atoms: _584  and  _586
REMARK  238  A    between atoms: _586  and  _587
REMARK  239  A    between atoms: _586  and  _589
REMARK  240  A    between atoms: _589  and  _590
REMARK  241  A    between atoms: _596  and  _598
REMARK  242  A    between atoms: _598  and  _599
REMARK  243  A    between atoms: _601  and  _603
REMARK  244  A    between atoms: _603  and  _604
REMARK  245  A    between atoms: _603  and  _606
REMARK  246  A    between atoms: _606  and  _607
REMARK                            x       y       z     vdW  Elec       q    Type
REMARK                         _______ _______ _______ _____ _____    ______ ____
ROOT
ATOM      1  C   TYR A   3      24.209   7.950  26.135  0.00  0.00    +0.241 C 
ATOM      2  O   TYR A   3      24.055   7.062  26.954  0.00  0.00    -0.273 OA
ATOM      3  N   GLY A   4      23.163   8.689  25.766  0.00  0.00    -0.295 N 
ATOM      4  H   GLY A   4      23.316   9.344  24.972  0.00  0.00    +0.150 HD
ENDROOT
BRANCH   3   5
ATOM      5  CA  GLY A   4      21.835   8.681  26.349  0.00  0.00    +0.176 C 
BRANCH   5   6
ATOM      6  C   GLY A   4      21.110   7.327  26.334  0.00  0.00    +0.243 C 
ATOM      7  O   GLY A   4      20.410   7.053  27.336  0.00  0.00    -0.273 OA
ATOM      8  N   ASP A   5      21.336   6.464  25.371  0.00  0.00    -0.296 N 
ATOM      9  H   ASP A   5      21.986   6.715  24.599  0.00  0.00    +0.150 HD
BRANCH   8  10
ATOM     10  CA  ASP A   5      20.680   5.142  25.369  0.00  0.00    +0.160 C 
BRANCH  10  11
ATOM     11  C   ASP A   5      21.527   4.056  26.044  0.00  0.00    +0.241 C 
ATOM     12  N   GLY A   6      22.572   4.434  26.754  0.00  0.00    -0.295 N 
ATOM     13  H   GLY A   6      22.766   5.452  26.838  0.00  0.00    +0.150 HD
ATOM     14  O   ASP A   5      21.208   2.875  25.931  0.00  0.00    -0.273 OA
BRANCH  12  15
ATOM     15  CA  GLY A   6      23.487   3.489  27.440  0.00  0.00    +0.176 C 
BRANCH  15  16
ATOM     16  C   GLY A   6      24.611   3.031  26.522  0.00  0.00    +0.243 C 
ATOM     17  O   GLY A   6      25.456   2.303  27.049  0.00  0.00    -0.273 OA
ATOM     18  N   SER A   7      24.757   3.300  25.289  0.00  0.00    -0.295 N 
ATOM     19  H   SER A   7      24.052   3.923  24.846  0.00  0.00    +0.150 HD
BRANCH  18  20
ATOM     20  CA  SER A   7      25.829   2.805  24.456  0.00  0.00    +0.178 C 
BRANCH  20  21
ATOM     21  C   SER A   7      27.141   3.573  24.839  0.00  0.00    +0.243 C 
ATOM     22  O   SER A   7      27.025   4.595  25.494  0.00  0.00    -0.273 OA
ATOM     23  N   SER A   8      28.284   2.973  24.554  0.00  0.00    -0.296 N 
ATOM     24  H   SER A   8      28.273   2.059  24.059  0.00  0.00    +0.150 HD
BRANCH  23  25
ATOM     25  CA  SER A   8      29.563   3.575  24.924  0.00  0.00    +0.166 C 
BRANCH  25  26
ATOM     26  C   SER A   8      30.687   3.066  24.001  0.00  0.00    +0.229 C 
ATOM     27  O   SER A   8      30.544   2.044  23.295  0.00  0.00    -0.286 OA
ENDBRANCH  25  26
BRANCH  25  28
ATOM     28  CB  SER A   8      30.011   3.283  26.351  0.00  0.00    +0.165 C 
BRANCH  28  29
ATOM     29  OG  SER A   8      30.058   1.877  26.540  0.00  0.00    -0.380 OA
ATOM     30  H   SER A   8      29.158   1.494  26.386  0.00  0.00    +0.211 HD
ENDBRANCH  28  29
ENDBRANCH  25  28
ENDBRANCH  23  25
ENDBRANCH  20  21
BRANCH  20  31
ATOM     31  CB  SER A   7      25.413   2.911  22.993  0.00  0.00    +0.166 C 
BRANCH  31  32
ATOM     32  OG  SER A   7      25.259   4.272  22.652  0.00  0.00    -0.380 OA
ATOM     33  H   SER A   7      24.562   4.678  23.226  0.00  0.00    +0.211 HD
ENDBRANCH  31  32
ENDBRANCH  20  31
ENDBRANCH  18  20
ENDBRANCH  15  16
ENDBRANCH  12  15
ENDBRANCH  10  11
BRANCH  10  34
ATOM     34  CB  ASP A   5      20.242   4.859  23.931  0.00  0.00    +0.143 C 
BRANCH  34  35
ATOM     35  CG  ASP A   5      21.444   4.798  23.018  0.00  0.00    +0.367 C 
ATOM     36  OD2 ASP A   5      22.628   4.694  23.514  0.00  0.00    -0.246 OA
ATOM     37  OD1 ASP A   5      21.285   4.723  21.802  0.00  0.00    -0.246 OA
ENDBRANCH  34  35
ENDBRANCH  10  34
ENDBRANCH   8  10
ENDBRANCH   5   6
ENDBRANCH   3   5
BRANCH   1  38
ATOM     38  CA  TYR A   3      25.474   8.184  25.348  0.00  0.00    +0.153 C 
BRANCH  38  41
ATOM     39  C   SER A   2      27.450   7.986  26.671  0.00  0.00    +0.243 C 
ATOM     40  O   SER A   2      27.453   9.173  27.093  0.00  0.00    -0.273 OA
ATOM     41  N   TYR A   3      26.602   7.417  25.877  0.00  0.00    -0.297 N 
ATOM     42  H   TYR A   3      26.722   6.418  25.616  0.00  0.00    +0.150 HD
BRANCH  39  43
ATOM     43  CA  SER A   2      28.625   7.159  27.245  0.00  0.00    +0.178 C 
BRANCH  43  45
ATOM     44  C   ILE A   1      30.921   7.332  26.335  0.00  0.00    +0.238 C 
ATOM     45  N   SER A   2      29.899   7.850  26.999  0.00  0.00    -0.295 N 
ATOM     46  H   SER A   2      30.005   8.815  27.373  0.00  0.00    +0.150 HD
ATOM     47  O   ILE A   1      30.954   6.152  25.890  0.00  0.00    -0.274 OA
BRANCH  44  48
ATOM     48  CA  ILE A   1      32.068   8.275  26.084  0.00  0.00    +0.145 C 
BRANCH  48  49
ATOM     49  N   ILE A   1      33.394   7.542  26.091  0.00  0.00    -0.238 NA
ATOM     50  H   ILE A   1      33.511   6.618  25.628  0.00  0.00    +0.142 HD
ENDBRANCH  48  49
BRANCH  48  51
ATOM     51  CB  ILE A   1      32.008   9.090  24.720  0.00  0.00    +0.025 C 
ATOM     52  CG2 ILE A   1      32.039   8.153  23.496  0.00  0.00    +0.002 C 
BRANCH  51  53
ATOM     53  CG1 ILE A   1      30.752   9.985  24.754  0.00  0.00    +0.002 C 
ATOM     54  CD1 ILE A   1      30.803  11.181  23.705  0.00  0.00    +0.000 C 
ENDBRANCH  51  53
ENDBRANCH  48  51
ENDBRANCH  44  48
ENDBRANCH  43  45
BRANCH  43  55
ATOM     55  CB  SER A   2      28.257   7.094  28.754  0.00  0.00    +0.166 C 
BRANCH  55  56
ATOM     56  OG  SER A   2      28.897   5.893  29.095  0.00  0.00    -0.380 OA
ATOM     57  H   SER A   2      29.867   5.975  28.916  0.00  0.00    +0.211 HD
ENDBRANCH  55  56
ENDBRANCH  43  55
ENDBRANCH  39  43
ENDBRANCH  38  41
BRANCH  38  58
ATOM     58  CB  TYR A   3      25.292   7.682  23.942  0.00  0.00    +0.055 C 
BRANCH  58  59
ATOM     59  CG  TYR A   3      26.500   8.022  23.082  0.00  0.00    -0.020 A 
ATOM     60  CD2 TYR A   3      27.434   7.029  22.791  0.00  0.00    -0.001 A 
ATOM     61  CE2 TYR A   3      28.572   7.372  22.045  0.00  0.00    +0.036 A 
ATOM     62  CZ  TYR A   3      28.727   8.663  21.594  0.00  0.00    +0.134 A 
ATOM     63  CE1 TYR A   3      27.774   9.636  21.808  0.00  0.00    +0.036 A 
ATOM     64  CD1 TYR A   3      26.624   9.308  22.584  0.00  0.00    -0.001 A 
BRANCH  62  65
ATOM     65  OH  TYR A   3      29.750   8.979  20.734  0.00  0.00    -0.506 OA
ATOM     66  HH  TYR A   3      30.241   9.765  21.082  0.00  0.00    +0.292 HD
ENDBRANCH  62  65
ENDBRANCH  58  59
ENDBRANCH  38  58
ENDBRANCH   1  38
TORSDOF 29
REMARK  Name = ../refined-set-2016/1ppl/1ppl_pocket.pdb
REMARK  246 active torsions:
REMARK  status: ('A' for Active; 'I' for Inactive)
REMARK    1  A    between atoms: _1  and  _3
REMARK    2  A    between atoms: _3  and  _4
REMARK    3  A    between atoms: _3  and  _6
REMARK    4  A    between atoms: _6  and  _7
REMARK    5  A    between atoms: _10  and  _12
REMARK    6  A    between atoms: _12  and  _13
REMARK    7  A    between atoms: _16  and  _18
REMARK    8  A    between atoms: _18  and  _19
REMARK    9  A    between atoms: _18  and  _21
REMARK   10  A    between atoms: _21  and  _22
REMARK   11  A    between atoms: _27  and  _29
REMARK   12  A    between atoms: _29  and  _30
REMARK   13  A    between atoms: _29  and  _32
REMARK   14  A    between atoms: _32  and  _33
REMARK   15  A    between atoms: _36  and  _38
REMARK   16  A    between atoms: _38  and  _39
REMARK   17  A    between atoms: _38  and  _41
REMARK   18  A    between atoms: _41  and  _42
REMARK   19  A    between atoms: _42  and  _43
REMARK   20  A    between atoms: _46  and  _48
REMARK   21  A    between atoms: _48  and  _49
REMARK   22  A    between atoms: _48  and  _51
REMARK   23  A    between atoms: _51  and  _52
REMARK   24  A    between atoms: _52  and  _53
REMARK   25  A    between atoms: _56  and  _58
REMARK   26  A    between atoms: _58  and  _59
REMARK   27  A    between atoms: _58  and  _61
REMARK   28  A    between atoms: _61  and  _62
REMARK   29  A    between atoms: _67  and  _68
REMARK   30  A    between atoms: _70  and  _72
REMARK   31  A    between atoms: _72  and  _73
REMARK   32  A    between atoms: _72  and  _75
REMARK   33  A    between atoms: _75  and  _76
REMARK   34  A    between atoms: _81  and  _83
REMARK   35  A    between atoms: _83  and  _84
REMARK   36  A    between atoms: _83  and  _86
REMARK   37  A    between atoms: _86  and  _87
REMARK   38  A    between atoms: _93  and  _95
REMARK   39  A    between atoms: _95  and  _96
REMARK   40  A    between atoms: _95  and  _98
REMARK   41  A    between atoms: _98  and  _99
REMARK   42  A    between atoms: _102  and  _104
REMARK   43  A    between atoms: _104  and  _105
REMARK   44  A    between atoms: _104  and  _107
REMARK   45  A    between atoms: _107  and  _108
REMARK   46  A    between atoms: _111  and  _113
REMARK   47  A    between atoms: _113  and  _114
REMARK   48  A    between atoms: _116  and  _118
REMARK   49  A    between atoms: _118  and  _119
REMARK   50  A    between atoms: _118  and  _121
REMARK   51  A    between atoms: _121  and  _122
REMARK   52  A    between atoms: _124  and  _126
REMARK   53  A    between atoms: _126  and  _127
REMARK   54  A    between atoms: _130  and  _132
REMARK   55  A    between atoms: _132  and  _133
REMARK   56  A    between atoms: _132  and  _135
REMARK   57  A    between atoms: _135  and  _136
REMARK   58  A    between atoms: _139  and  _141
REMARK   59  A    between atoms: _141  and  _142
REMARK   60  A    between atoms: _141  and  _144
REMARK   61  A    between atoms: _144  and  _145
REMARK   62  A    between atoms: _155  and  _157
REMARK   63  A    between atoms: _157  and  _158
REMARK   64  A    between atoms: _157  and  _160
REMARK   65  A    between atoms: _160  and  _161
REMARK   66  A    between atoms: _164  and  _166
REMARK   67  A    between atoms: _166  and  _167
REMARK   68  A    between atoms: _166  and  _169
REMARK   69  A    between atoms: _169  and  _170
REMARK   70  A    between atoms: _172  and  _174
REMARK   71  A    between atoms: _174  and  _175
REMARK   72  A    between atoms: _174  and  _177
REMARK   73  A    between atoms: _177  and  _178
REMARK   74  A    between atoms: _183  and  _184
REMARK   75  A    between atoms: _186  and  _188
REMARK   76  A    between atoms: _188  and  _189
REMARK   77  A    between atoms: _191  and  _193
REMARK   78  A    between atoms: _193  and  _194
REMARK   79  A    between atoms: _193  and  _196
REMARK   80  A    between atoms: _196  and  _197
REMARK   81  A    between atoms: _200  and  _202
REMARK   82  A    between atoms: _202  and  _203
REMARK   83  A    between atoms: _205  and  _207
REMARK   84  A    between atoms: _207  and  _208
REMARK   85  A    between atoms: _207  and  _210
REMARK   86  A    between atoms: _210  and  _211
REMARK   87  A    between atoms: _213  and  _215
REMARK   88  A    between atoms: _215  and  _216
REMARK   89  A    between atoms: _215  and  _218
REMARK   90  A    between atoms: _218  and  _219
REMARK   91  A    between atoms: _221  and  _223
REMARK   92  A    between atoms: _223  and  _224
REMARK   93  A    between atoms: _223  and  _226
REMARK   94  A    between atoms: _226  and  _227
REMARK   95  A    between atoms: _227  and  _228
REMARK   96  A    between atoms: _233  and  _235
REMARK   97  A    between atoms: _235  and  _236
REMARK   98  A    between atoms: _235  and  _238
REMARK   99  A    between atoms: _238  and  _239
REMARK  100  A    between atoms: _245  and  _247
REMARK  101  A    between atoms: _247  and  _248
REMARK  102  A    between atoms: _247  and  _250
REMARK  103  A    between atoms: _250  and  _251
REMARK  104  A    between atoms: _254  and  _256
REMARK  105  A    between atoms: _256  and  _257
REMARK  106  A    between atoms: _256  and  _259
REMARK  107  A    between atoms: _259  and  _260
REMARK  108  A    between atoms: _265  and  _267
REMARK  109  A    between atoms: _267  and  _268
REMARK  110  A    between atoms: _267  and  _270
REMARK  111  A    between atoms: _270  and  _271
REMARK  112  A    between atoms: _276  and  _278
REMARK  113  A    between atoms: _278  and  _279
REMARK  114  A    between atoms: _281  and  _283
REMARK  115  A    between atoms: _283  and  _284
REMARK  116  A    between atoms: _283  and  _286
REMARK  117  A    between atoms: _286  and  _287
REMARK  118  A    between atoms: _290  and  _292
REMARK  119  A    between atoms: _292  and  _293
REMARK  120  A    between atoms: _292  and  _295
REMARK  121  A    between atoms: _295  and  _296
REMARK  122  A    between atoms: _299  and  _301
REMARK  123  A    between atoms: _301  and  _302
REMARK  124  A    between atoms: _304  and  _306
REMARK  125  A    between atoms: _306  and  _307
REMARK  126  A    between atoms: _306  and  _309
REMARK  127  A    between atoms: _309  and  _310
REMARK  128  A    between atoms: _313  and  _315
REMARK  129  A    between atoms: _315  and  _316
REMARK  130  A    between atoms: _319  and  _321
REMARK  131  A    between atoms: _321  and  _322
REMARK  132  A    between atoms: _321  and  _324
REMARK  133  A    between atoms: _324  and  _325
REMARK  134  A    between atoms: _328  and  _330
REMARK  135  A    between atoms: _330  and  _331
REMARK  136  A    between atoms: _330  and  _333
REMARK  137  A    between atoms: _333  and  _334
REMARK  138  A    between atoms: _337  and  _339
REMARK  139  A    between atoms: _339  and  _340
REMARK  140  A    between atoms: _339  and  _342
REMARK  141  A    between atoms: _342  and  _343
REMARK  142  A    between atoms: _349  and  _351
REMARK  143  A    between atoms: _351  and  _352
REMARK  144  A    between atoms: _351  and  _354
REMARK  145  A    between atoms: _354  and  _355
REMARK  146  A    between atoms: _365  and  _367
REMARK  147  A    between atoms: _367  and  _368
REMARK  148  A    between atoms: _367  and  _370
REMARK  149  A    between atoms: _370  and  _371
REMARK  150  A    between atoms: _374  and  _376
REMARK  151  A    between atoms: _376  and  _377
REMARK  152  A    between atoms: _380  and  _382
REMARK  153  A    between atoms: _382  and  _383
REMARK  154  A    between atoms: _382  and  _385
REMARK  155  A    between atoms: _385  and  _386
REMARK  156  A    between atoms: _389  and  _391
REMARK  157  A    between atoms: _391  and  _392
REMARK  158  A    between atoms: _391  and  _394
REMARK  159  A    between atoms: _394  and  _395
REMARK  160  A    between atoms: _398  and  _400
REMARK  161  A    between atoms: _400  and  _401
REMARK  162  A    between atoms: _403  and  _405
REMARK  163  A    between atoms: _405  and  _406
REMARK  164  A    between atoms: _405  and  _408
REMARK  165  A    between atoms: _408  and  _409
REMARK  166  A    between atoms: _412  and  _414
REMARK  167  A    between atoms: _414  and  _415
REMARK  168  A    between atoms: _414  and  _417
REMARK  169  A    between atoms: _417  and  _418
REMARK  170  A    between atoms: _421  and  _423
REMARK  171  A    between atoms: _423  and  _424
REMARK  172  A    between atoms: _423  and  _426
REMARK  173  A    between atoms: _426  and  _427
REMARK  174  A    between atoms: _430  and  _432
REMARK  175  A    between atoms: _432  and  _433
REMARK  176  A    between atoms: _432  and  _435
REMARK  177  A    between atoms: _435  and  _436
REMARK  178  A    between atoms: _439  and  _441
REMARK  179  A    between atoms: _441  and  _442
REMARK  180  A    between atoms: _441  and  _444
REMARK  181  A    between atoms: _444  and  _445
REMARK  182  A    between atoms: _448  and  _450
REMARK  183  A    between atoms: _450  and  _451
REMARK  184  A    between atoms: _454  and  _456
REMARK  185  A    between atoms: _456  and  _457
REMARK  186  A    between atoms: _459  and  _461
REMARK  187  A    between atoms: _461  and  _462
REMARK  188  A    between atoms: _464  and  _466
REMARK  189  A    between atoms: _466  and  _467
REMARK  190  A    between atoms: _466  and  _469
REMARK  191  A    between atoms: _469  and  _470
REMARK  192  A    between atoms: _475  and  _476
REMARK  193  A    between atoms: _479  and  _480
REMARK  194  A    between atoms: _485  and  _487
REMARK  195  A    between atoms: _487  and  _488
REMARK  196  A    between atoms: _487  and  _490
REMARK  197  A    between atoms: _490  and  _491
REMARK  198  A    between atoms: _493  and  _495
REMARK  199  A    between atoms: _495  and  _496
REMARK  200  A    between atoms: _495  and  _498
REMARK  201  A    between atoms: _498  and  _499
REMARK  202  A    between atoms: _502  and  _504
REMARK  203  A    between atoms: _504  and  _505
REMARK  204  A    between atoms: _507  and  _509
REMARK  205  A    between atoms: _509  and  _510
REMARK  206  A    between atoms: _509  and  _512
REMARK  207  A    between atoms: _512  and  _513
REMARK  208  A    between atoms: _513  and  _514
REMARK  209  A    between atoms: _519  and  _521
REMARK  210  A    between atoms: _521  and  _522
REMARK  211  A    between atoms: _521  and  _524
REMARK  212  A    between atoms: _524  and  _525
REMARK  213  A    between atoms: _527  and  _529
REMARK  214  A    between atoms: _529  and  _530
REMARK  215  A    between atoms: _529  and  _532
REMARK  216  A    between atoms: _532  and  _533
REMARK  217  A    between atoms: _538  and  _540
REMARK  218  A    between atoms: _540  and  _541
REMARK  219  A    between atoms: _540  and  _543
REMARK  220  A    between atoms: _543  and  _544
REMARK  221  A    between atoms: _546  and  _548
REMARK  222  A    between atoms: _548  and  _549
REMARK  223  A    between atoms: _548  and  _551
REMARK  224  A    between atoms: _551  and  _552
REMARK  225  A    between atoms: _555  and  _557
REMARK  226  A    between atoms: _557  and  _558
REMARK  227  A    between atoms: _557  and  _560
REMARK  228  A    between atoms: _560  and  _561
REMARK  229  A    between atoms: _567  and  _569
REMARK  230  A    between atoms: _569  and  _570
REMARK  231  A    between atoms: _569  and  _572
REMARK  232  A    between atoms: _572  and  _573
REMARK  233  A    between atoms: _575  and  _577
REMARK  234  A    between atoms: _577  and  _578
REMARK  235  A    between atoms: _577  and  _580
REMARK  236  A    between atoms: _580  and  _581
REMARK  237  A    between atoms: _584  and  _586
REMARK  238  A    between atoms: _586  and  _587
REMARK  239  A    between atoms: _586  and  _589
REMARK  240  A    between atoms: _589  and  _590
REMARK  241  A    between atoms: _596  and  _598
REMARK  242  A    between atoms: _598  and  _599
REMARK  243  A    between atoms: _601  and  _603
REMARK  244  A    between atoms: _603  and  _604
REMARK  245  A    between atoms: _603  and  _606
REMARK  246  A    between atoms: _606  and  _607
REMARK                            x       y       z     vdW  Elec       q    Type
REMARK                         _______ _______ _______ _____ _____    ______ ____
ROOT
ATOM      1  C   GLN A   1      25.419  -1.078  19.180  0.00  0.00    +0.238 C 
ATOM      2  N   PHE A   2      26.699  -0.596  19.331  0.00  0.00    -0.298 N 
ATOM      3  H   PHE A   2      27.114  -0.479  20.277  0.00  0.00    +0.150 HD
ATOM      4  O   GLN A   1      24.954  -1.202  18.030  0.00  0.00    -0.274 OA
ENDROOT
BRANCH   1   5
ATOM      5  CA  GLN A   1      24.686  -1.415  20.421  0.00  0.00    +0.145 C 
BRANCH   5   6
ATOM      6  N   GLN A   1      25.496  -2.241  21.361  0.00  0.00    -0.238 NA
ATOM      7  H   GLN A   1      25.606  -1.953  22.354  0.00  0.00    +0.142 HD
ENDBRANCH   5   6
BRANCH   5   8
ATOM      8  CB  GLN A   1      24.217  -0.151  21.143  0.00  0.00    +0.036 C 
BRANCH   8   9
ATOM      9  CG  GLN A   1      22.925   0.490  20.744  0.00  0.00    +0.087 C 
BRANCH   9  10
ATOM     10  CD  GLN A   1      22.827   1.737  19.874  0.00  0.00    +0.219 C 
ATOM     11  NE2 GLN A   1      22.894   2.958  20.400  0.00  0.00    -0.329 N 
ATOM     12 HE21 GLN A   1      22.979   3.077  21.430  0.00  0.00    +0.145 HD
ATOM     13 HE22 GLN A   1      22.862   3.793  19.781  0.00  0.00    +0.145 HD
ATOM     14  OE1 GLN A   1      22.721   1.582  18.588  0.00  0.00    -0.275 OA
ENDBRANCH   9  10
ENDBRANCH   8   9
ENDBRANCH   5   8
ENDBRANCH   1   5
BRANCH   2  15
ATOM     15  CA  PHE A   2      27.477  -0.246  18.111  0.00  0.00    +0.141 C 
BRANCH  15  16
ATOM     16  C   PHE A   2      27.943  -1.493  17.342  0.00  0.00    +0.227 C 
ATOM     17  O   PHE A   2      28.077  -1.502  16.111  0.00  0.00    -0.286 OA
ENDBRANCH  15  16
BRANCH  15  18
ATOM     18  CB  PHE A   2      28.701   0.627  18.491  0.00  0.00    +0.054 C 
BRANCH  18  19
ATOM     19  CG  PHE A   2      28.248   1.973  19.058  0.00  0.00    -0.020 A 
ATOM     20  CD2 PHE A   2      28.570   2.310  20.352  0.00  0.00    -0.004 A 
ATOM     21  CE2 PHE A   2      28.199   3.541  20.896  0.00  0.00    -0.000 A 
ATOM     22  CZ  PHE A   2      27.507   4.411  20.051  0.00  0.00    -0.000 A 
ATOM     23  CE1 PHE A   2      27.165   4.075  18.755  0.00  0.00    -0.000 A 
ATOM     24  CD1 PHE A   2      27.587   2.848  18.184  0.00  0.00    -0.004 A 
ENDBRANCH  18  19
ENDBRANCH  15  18
ENDBRANCH   2  15
TORSDOF 9
REMARK  Name = ../refined-set-2016/1ppl/1ppl_pocket.pdb
REMARK  246 active torsions:
REMARK  status: ('A' for Active; 'I' for Inactive)
REMARK    1  A    between atoms: _1  and  _3
REMARK    2  A    between atoms: _3  and  _4
REMARK    3  A    between atoms: _3  and  _6
REMARK    4  A    between atoms: _6  and  _7
REMARK    5  A    between atoms: _10  and  _12
REMARK    6  A    between atoms: _12  and  _13
REMARK    7  A    between atoms: _16  and  _18
REMARK    8  A    between atoms: _18  and  _19
REMARK    9  A    between atoms: _18  and  _21
REMARK   10  A    between atoms: _21  and  _22
REMARK   11  A    between atoms: _27  and  _29
REMARK   12  A    between atoms: _29  and  _30
REMARK   13  A    between atoms: _29  and  _32
REMARK   14  A    between atoms: _32  and  _33
REMARK   15  A    between atoms: _36  and  _38
REMARK   16  A    between atoms: _38  and  _39
REMARK   17  A    between atoms: _38  and  _41
REMARK   18  A    between atoms: _41  and  _42
REMARK   19  A    between atoms: _42  and  _43
REMARK   20  A    between atoms: _46  and  _48
REMARK   21  A    between atoms: _48  and  _49
REMARK   22  A    between atoms: _48  and  _51
REMARK   23  A    between atoms: _51  and  _52
REMARK   24  A    between atoms: _52  and  _53
REMARK   25  A    between atoms: _56  and  _58
REMARK   26  A    between atoms: _58  and  _59
REMARK   27  A    between atoms: _58  and  _61
REMARK   28  A    between atoms: _61  and  _62
REMARK   29  A    between atoms: _67  and  _68
REMARK   30  A    between atoms: _70  and  _72
REMARK   31  A    between atoms: _72  and  _73
REMARK   32  A    between atoms: _72  and  _75
REMARK   33  A    between atoms: _75  and  _76
REMARK   34  A    between atoms: _81  and  _83
REMARK   35  A    between atoms: _83  and  _84
REMARK   36  A    between atoms: _83  and  _86
REMARK   37  A    between atoms: _86  and  _87
REMARK   38  A    between atoms: _93  and  _95
REMARK   39  A    between atoms: _95  and  _96
REMARK   40  A    between atoms: _95  and  _98
REMARK   41  A    between atoms: _98  and  _99
REMARK   42  A    between atoms: _102  and  _104
REMARK   43  A    between atoms: _104  and  _105
REMARK   44  A    between atoms: _104  and  _107
REMARK   45  A    between atoms: _107  and  _108
REMARK   46  A    between atoms: _111  and  _113
REMARK   47  A    between atoms: _113  and  _114
REMARK   48  A    between atoms: _116  and  _118
REMARK   49  A    between atoms: _118  and  _119
REMARK   50  A    between atoms: _118  and  _121
REMARK   51  A    between atoms: _121  and  _122
REMARK   52  A    between atoms: _124  and  _126
REMARK   53  A    between atoms: _126  and  _127
REMARK   54  A    between atoms: _130  and  _132
REMARK   55  A    between atoms: _132  and  _133
REMARK   56  A    between atoms: _132  and  _135
REMARK   57  A    between atoms: _135  and  _136
REMARK   58  A    between atoms: _139  and  _141
REMARK   59  A    between atoms: _141  and  _142
REMARK   60  A    between atoms: _141  and  _144
REMARK   61  A    between atoms: _144  and  _145
REMARK   62  A    between atoms: _155  and  _157
REMARK   63  A    between atoms: _157  and  _158
REMARK   64  A    between atoms: _157  and  _160
REMARK   65  A    between atoms: _160  and  _161
REMARK   66  A    between atoms: _164  and  _166
REMARK   67  A    between atoms: _166  and  _167
REMARK   68  A    between atoms: _166  and  _169
REMARK   69  A    between atoms: _169  and  _170
REMARK   70  A    between atoms: _172  and  _174
REMARK   71  A    between atoms: _174  and  _175
REMARK   72  A    between atoms: _174  and  _177
REMARK   73  A    between atoms: _177  and  _178
REMARK   74  A    between atoms: _183  and  _184
REMARK   75  A    between atoms: _186  and  _188
REMARK   76  A    between atoms: _188  and  _189
REMARK   77  A    between atoms: _191  and  _193
REMARK   78  A    between atoms: _193  and  _194
REMARK   79  A    between atoms: _193  and  _196
REMARK   80  A    between atoms: _196  and  _197
REMARK   81  A    between atoms: _200  and  _202
REMARK   82  A    between atoms: _202  and  _203
REMARK   83  A    between atoms: _205  and  _207
REMARK   84  A    between atoms: _207  and  _208
REMARK   85  A    between atoms: _207  and  _210
REMARK   86  A    between atoms: _210  and  _211
REMARK   87  A    between atoms: _213  and  _215
REMARK   88  A    between atoms: _215  and  _216
REMARK   89  A    between atoms: _215  and  _218
REMARK   90  A    between atoms: _218  and  _219
REMARK   91  A    between atoms: _221  and  _223
REMARK   92  A    between atoms: _223  and  _224
REMARK   93  A    between atoms: _223  and  _226
REMARK   94  A    between atoms: _226  and  _227
REMARK   95  A    between atoms: _227  and  _228
REMARK   96  A    between atoms: _233  and  _235
REMARK   97  A    between atoms: _235  and  _236
REMARK   98  A    between atoms: _235  and  _238
REMARK   99  A    between atoms: _238  and  _239
REMARK  100  A    between atoms: _245  and  _247
REMARK  101  A    between atoms: _247  and  _248
REMARK  102  A    between atoms: _247  and  _250
REMARK  103  A    between atoms: _250  and  _251
REMARK  104  A    between atoms: _254  and  _256
REMARK  105  A    between atoms: _256  and  _257
REMARK  106  A    between atoms: _256  and  _259
REMARK  107  A    between atoms: _259  and  _260
REMARK  108  A    between atoms: _265  and  _267
REMARK  109  A    between atoms: _267  and  _268
REMARK  110  A    between atoms: _267  and  _270
REMARK  111  A    between atoms: _270  and  _271
REMARK  112  A    between atoms: _276  and  _278
REMARK  113  A    between atoms: _278  and  _279
REMARK  114  A    between atoms: _281  and  _283
REMARK  115  A    between atoms: _283  and  _284
REMARK  116  A    between atoms: _283  and  _286
REMARK  117  A    between atoms: _286  and  _287
REMARK  118  A    between atoms: _290  and  _292
REMARK  119  A    between atoms: _292  and  _293
REMARK  120  A    between atoms: _292  and  _295
REMARK  121  A    between atoms: _295  and  _296
REMARK  122  A    between atoms: _299  and  _301
REMARK  123  A    between atoms: _301  and  _302
REMARK  124  A    between atoms: _304  and  _306
REMARK  125  A    between atoms: _306  and  _307
REMARK  126  A    between atoms: _306  and  _309
REMARK  127  A    between atoms: _309  and  _310
REMARK  128  A    between atoms: _313  and  _315
REMARK  129  A    between atoms: _315  and  _316
REMARK  130  A    between atoms: _319  and  _321
REMARK  131  A    between atoms: _321  and  _322
REMARK  132  A    between atoms: _321  and  _324
REMARK  133  A    between atoms: _324  and  _325
REMARK  134  A    between atoms: _328  and  _330
REMARK  135  A    between atoms: _330  and  _331
REMARK  136  A    between atoms: _330  and  _333
REMARK  137  A    between atoms: _333  and  _334
REMARK  138  A    between atoms: _337  and  _339
REMARK  139  A    between atoms: _339  and  _340
REMARK  140  A    between atoms: _339  and  _342
REMARK  141  A    between atoms: _342  and  _343
REMARK  142  A    between atoms: _349  and  _351
REMARK  143  A    between atoms: _351  and  _352
REMARK  144  A    between atoms: _351  and  _354
REMARK  145  A    between atoms: _354  and  _355
REMARK  146  A    between atoms: _365  and  _367
REMARK  147  A    between atoms: _367  and  _368
REMARK  148  A    between atoms: _367  and  _370
REMARK  149  A    between atoms: _370  and  _371
REMARK  150  A    between atoms: _374  and  _376
REMARK  151  A    between atoms: _376  and  _377
REMARK  152  A    between atoms: _380  and  _382
REMARK  153  A    between atoms: _382  and  _383
REMARK  154  A    between atoms: _382  and  _385
REMARK  155  A    between atoms: _385  and  _386
REMARK  156  A    between atoms: _389  and  _391
REMARK  157  A    between atoms: _391  and  _392
REMARK  158  A    between atoms: _391  and  _394
REMARK  159  A    between atoms: _394  and  _395
REMARK  160  A    between atoms: _398  and  _400
REMARK  161  A    between atoms: _400  and  _401
REMARK  162  A    between atoms: _403  and  _405
REMARK  163  A    between atoms: _405  and  _406
REMARK  164  A    between atoms: _405  and  _408
REMARK  165  A    between atoms: _408  and  _409
REMARK  166  A    between atoms: _412  and  _414
REMARK  167  A    between atoms: _414  and  _415
REMARK  168  A    between atoms: _414  and  _417
REMARK  169  A    between atoms: _417  and  _418
REMARK  170  A    between atoms: _421  and  _423
REMARK  171  A    between atoms: _423  and  _424
REMARK  172  A    between atoms: _423  and  _426
REMARK  173  A    between atoms: _426  and  _427
REMARK  174  A    between atoms: _430  and  _432
REMARK  175  A    between atoms: _432  and  _433
REMARK  176  A    between atoms: _432  and  _435
REMARK  177  A    between atoms: _435  and  _436
REMARK  178  A    between atoms: _439  and  _441
REMARK  179  A    between atoms: _441  and  _442
REMARK  180  A    between atoms: _441  and  _444
REMARK  181  A    between atoms: _444  and  _445
REMARK  182  A    between atoms: _448  and  _450
REMARK  183  A    between atoms: _450  and  _451
REMARK  184  A    between atoms: _454  and  _456
REMARK  185  A    between atoms: _456  and  _457
REMARK  186  A    between atoms: _459  and  _461
REMARK  187  A    between atoms: _461  and  _462
REMARK  188  A    between atoms: _464  and  _466
REMARK  189  A    between atoms: _466  and  _467
REMARK  190  A    between atoms: _466  and  _469
REMARK  191  A    between atoms: _469  and  _470
REMARK  192  A    between atoms: _475  and  _476
REMARK  193  A    between atoms: _479  and  _480
REMARK  194  A    between atoms: _485  and  _487
REMARK  195  A    between atoms: _487  and  _488
REMARK  196  A    between atoms: _487  and  _490
REMARK  197  A    between atoms: _490  and  _491
REMARK  198  A    between atoms: _493  and  _495
REMARK  199  A    between atoms: _495  and  _496
REMARK  200  A    between atoms: _495  and  _498
REMARK  201  A    between atoms: _498  and  _499
REMARK  202  A    between atoms: _502  and  _504
REMARK  203  A    between atoms: _504  and  _505
REMARK  204  A    between atoms: _507  and  _509
REMARK  205  A    between atoms: _509  and  _510
REMARK  206  A    between atoms: _509  and  _512
REMARK  207  A    between atoms: _512  and  _513
REMARK  208  A    between atoms: _513  and  _514
REMARK  209  A    between atoms: _519  and  _521
REMARK  210  A    between atoms: _521  and  _522
REMARK  211  A    between atoms: _521  and  _524
REMARK  212  A    between atoms: _524  and  _525
REMARK  213  A    between atoms: _527  and  _529
REMARK  214  A    between atoms: _529  and  _530
REMARK  215  A    between atoms: _529  and  _532
REMARK  216  A    between atoms: _532  and  _533
REMARK  217  A    between atoms: _538  and  _540
REMARK  218  A    between atoms: _540  and  _541
REMARK  219  A    between atoms: _540  and  _543
REMARK  220  A    between atoms: _543  and  _544
REMARK  221  A    between atoms: _546  and  _548
REMARK  222  A    between atoms: _548  and  _549
REMARK  223  A    between atoms: _548  and  _551
REMARK  224  A    between atoms: _551  and  _552
REMARK  225  A    between atoms: _555  and  _557
REMARK  226  A    between atoms: _557  and  _558
REMARK  227  A    between atoms: _557  and  _560
REMARK  228  A    between atoms: _560  and  _561
REMARK  229  A    between atoms: _567  and  _569
REMARK  230  A    between atoms: _569  and  _570
REMARK  231  A    between atoms: _569  and  _572
REMARK  232  A    between atoms: _572  and  _573
REMARK  233  A    between atoms: _575  and  _577
REMARK  234  A    between atoms: _577  and  _578
REMARK  235  A    between atoms: _577  and  _580
REMARK  236  A    between atoms: _580  and  _581
REMARK  237  A    between atoms: _584  and  _586
REMARK  238  A    between atoms: _586  and  _587
REMARK  239  A    between atoms: _586  and  _589
REMARK  240  A    between atoms: _589  and  _590
REMARK  241  A    between atoms: _596  and  _598
REMARK  242  A    between atoms: _598  and  _599
REMARK  243  A    between atoms: _601  and  _603
REMARK  244  A    between atoms: _603  and  _604
REMARK  245  A    between atoms: _603  and  _606
REMARK  246  A    between atoms: _606  and  _607
REMARK                            x       y       z     vdW  Elec       q    Type
REMARK                         _______ _______ _______ _____ _____    ______ ____
ROOT
ATOM      1  CA  ASP A   1      24.727  -1.326  14.121  0.00  0.00    +0.144 C 
ENDROOT
BRANCH   1   2
ATOM      2  N   ASP A   1      25.155  -2.311  15.125  0.00  0.00    -0.239 NA
ATOM      3  H   ASP A   1      25.776  -2.005  15.901  0.00  0.00    +0.142 HD
ENDBRANCH   1   2
BRANCH   1   4
ATOM      4  C   ASP A   1      25.688  -1.257  12.963  0.00  0.00    +0.225 C 
ATOM      5  O   ASP A   1      26.805  -0.678  13.076  0.00  0.00    -0.287 OA
ENDBRANCH   1   4
BRANCH   1   6
ATOM      6  CB  ASP A   1      24.521  -0.073  14.995  0.00  0.00    +0.139 C 
BRANCH   6   7
ATOM      7  CG  ASP A   1      24.032   1.071  14.097  0.00  0.00    +0.367 C 
ATOM      8  OD2 ASP A   1      23.785   2.131  14.736  0.00  0.00    -0.246 OA
ATOM      9  OD1 ASP A   1      23.837   0.856  12.882  0.00  0.00    -0.246 OA
ENDBRANCH   6   7
ENDBRANCH   1   6
TORSDOF 4
REMARK  Name = ../refined-set-2016/1ppl/1ppl_pocket.pdb
REMARK  246 active torsions:
REMARK  status: ('A' for Active; 'I' for Inactive)
REMARK    1  A    between atoms: _1  and  _3
REMARK    2  A    between atoms: _3  and  _4
REMARK    3  A    between atoms: _3  and  _6
REMARK    4  A    between atoms: _6  and  _7
REMARK    5  A    between atoms: _10  and  _12
REMARK    6  A    between atoms: _12  and  _13
REMARK    7  A    between atoms: _16  and  _18
REMARK    8  A    between atoms: _18  and  _19
REMARK    9  A    between atoms: _18  and  _21
REMARK   10  A    between atoms: _21  and  _22
REMARK   11  A    between atoms: _27  and  _29
REMARK   12  A    between atoms: _29  and  _30
REMARK   13  A    between atoms: _29  and  _32
REMARK   14  A    between atoms: _32  and  _33
REMARK   15  A    between atoms: _36  and  _38
REMARK   16  A    between atoms: _38  and  _39
REMARK   17  A    between atoms: _38  and  _41
REMARK   18  A    between atoms: _41  and  _42
REMARK   19  A    between atoms: _42  and  _43
REMARK   20  A    between atoms: _46  and  _48
REMARK   21  A    between atoms: _48  and  _49
REMARK   22  A    between atoms: _48  and  _51
REMARK   23  A    between atoms: _51  and  _52
REMARK   24  A    between atoms: _52  and  _53
REMARK   25  A    between atoms: _56  and  _58
REMARK   26  A    between atoms: _58  and  _59
REMARK   27  A    between atoms: _58  and  _61
REMARK   28  A    between atoms: _61  and  _62
REMARK   29  A    between atoms: _67  and  _68
REMARK   30  A    between atoms: _70  and  _72
REMARK   31  A    between atoms: _72  and  _73
REMARK   32  A    between atoms: _72  and  _75
REMARK   33  A    between atoms: _75  and  _76
REMARK   34  A    between atoms: _81  and  _83
REMARK   35  A    between atoms: _83  and  _84
REMARK   36  A    between atoms: _83  and  _86
REMARK   37  A    between atoms: _86  and  _87
REMARK   38  A    between atoms: _93  and  _95
REMARK   39  A    between atoms: _95  and  _96
REMARK   40  A    between atoms: _95  and  _98
REMARK   41  A    between atoms: _98  and  _99
REMARK   42  A    between atoms: _102  and  _104
REMARK   43  A    between atoms: _104  and  _105
REMARK   44  A    between atoms: _104  and  _107
REMARK   45  A    between atoms: _107  and  _108
REMARK   46  A    between atoms: _111  and  _113
REMARK   47  A    between atoms: _113  and  _114
REMARK   48  A    between atoms: _116  and  _118
REMARK   49  A    between atoms: _118  and  _119
REMARK   50  A    between atoms: _118  and  _121
REMARK   51  A    between atoms: _121  and  _122
REMARK   52  A    between atoms: _124  and  _126
REMARK   53  A    between atoms: _126  and  _127
REMARK   54  A    between atoms: _130  and  _132
REMARK   55  A    between atoms: _132  and  _133
REMARK   56  A    between atoms: _132  and  _135
REMARK   57  A    between atoms: _135  and  _136
REMARK   58  A    between atoms: _139  and  _141
REMARK   59  A    between atoms: _141  and  _142
REMARK   60  A    between atoms: _141  and  _144
REMARK   61  A    between atoms: _144  and  _145
REMARK   62  A    between atoms: _155  and  _157
REMARK   63  A    between atoms: _157  and  _158
REMARK   64  A    between atoms: _157  and  _160
REMARK   65  A    between atoms: _160  and  _161
REMARK   66  A    between atoms: _164  and  _166
REMARK   67  A    between atoms: _166  and  _167
REMARK   68  A    between atoms: _166  and  _169
REMARK   69  A    between atoms: _169  and  _170
REMARK   70  A    between atoms: _172  and  _174
REMARK   71  A    between atoms: _174  and  _175
REMARK   72  A    between atoms: _174  and  _177
REMARK   73  A    between atoms: _177  and  _178
REMARK   74  A    between atoms: _183  and  _184
REMARK   75  A    between atoms: _186  and  _188
REMARK   76  A    between atoms: _188  and  _189
REMARK   77  A    between atoms: _191  and  _193
REMARK   78  A    between atoms: _193  and  _194
REMARK   79  A    between atoms: _193  and  _196
REMARK   80  A    between atoms: _196  and  _197
REMARK   81  A    between atoms: _200  and  _202
REMARK   82  A    between atoms: _202  and  _203
REMARK   83  A    between atoms: _205  and  _207
REMARK   84  A    between atoms: _207  and  _208
REMARK   85  A    between atoms: _207  and  _210
REMARK   86  A    between atoms: _210  and  _211
REMARK   87  A    between atoms: _213  and  _215
REMARK   88  A    between atoms: _215  and  _216
REMARK   89  A    between atoms: _215  and  _218
REMARK   90  A    between atoms: _218  and  _219
REMARK   91  A    between atoms: _221  and  _223
REMARK   92  A    between atoms: _223  and  _224
REMARK   93  A    between atoms: _223  and  _226
REMARK   94  A    between atoms: _226  and  _227
REMARK   95  A    between atoms: _227  and  _228
REMARK   96  A    between atoms: _233  and  _235
REMARK   97  A    between atoms: _235  and  _236
REMARK   98  A    between atoms: _235  and  _238
REMARK   99  A    between atoms: _238  and  _239
REMARK  100  A    between atoms: _245  and  _247
REMARK  101  A    between atoms: _247  and  _248
REMARK  102  A    between atoms: _247  and  _250
REMARK  103  A    between atoms: _250  and  _251
REMARK  104  A    between atoms: _254  and  _256
REMARK  105  A    between atoms: _256  and  _257
REMARK  106  A    between atoms: _256  and  _259
REMARK  107  A    between atoms: _259  and  _260
REMARK  108  A    between atoms: _265  and  _267
REMARK  109  A    between atoms: _267  and  _268
REMARK  110  A    between atoms: _267  and  _270
REMARK  111  A    between atoms: _270  and  _271
REMARK  112  A    between atoms: _276  and  _278
REMARK  113  A    between atoms: _278  and  _279
REMARK  114  A    between atoms: _281  and  _283
REMARK  115  A    between atoms: _283  and  _284
REMARK  116  A    between atoms: _283  and  _286
REMARK  117  A    between atoms: _286  and  _287
REMARK  118  A    between atoms: _290  and  _292
REMARK  119  A    between atoms: _292  and  _293
REMARK  120  A    between atoms: _292  and  _295
REMARK  121  A    between atoms: _295  and  _296
REMARK  122  A    between atoms: _299  and  _301
REMARK  123  A    between atoms: _301  and  _302
REMARK  124  A    between atoms: _304  and  _306
REMARK  125  A    between atoms: _306  and  _307
REMARK  126  A    between atoms: _306  and  _309
REMARK  127  A    between atoms: _309  and  _310
REMARK  128  A    between atoms: _313  and  _315
REMARK  129  A    between atoms: _315  and  _316
REMARK  130  A    between atoms: _319  and  _321
REMARK  131  A    between atoms: _321  and  _322
REMARK  132  A    between atoms: _321  and  _324
REMARK  133  A    between atoms: _324  and  _325
REMARK  134  A    between atoms: _328  and  _330
REMARK  135  A    between atoms: _330  and  _331
REMARK  136  A    between atoms: _330  and  _333
REMARK  137  A    between atoms: _333  and  _334
REMARK  138  A    between atoms: _337  and  _339
REMARK  139  A    between atoms: _339  and  _340
REMARK  140  A    between atoms: _339  and  _342
REMARK  141  A    between atoms: _342  and  _343
REMARK  142  A    between atoms: _349  and  _351
REMARK  143  A    between atoms: _351  and  _352
REMARK  144  A    between atoms: _351  and  _354
REMARK  145  A    between atoms: _354  and  _355
REMARK  146  A    between atoms: _365  and  _367
REMARK  147  A    between atoms: _367  and  _368
REMARK  148  A    between atoms: _367  and  _370
REMARK  149  A    between atoms: _370  and  _371
REMARK  150  A    between atoms: _374  and  _376
REMARK  151  A    between atoms: _376  and  _377
REMARK  152  A    between atoms: _380  and  _382
REMARK  153  A    between atoms: _382  and  _383
REMARK  154  A    between atoms: _382  and  _385
REMARK  155  A    between atoms: _385  and  _386
REMARK  156  A    between atoms: _389  and  _391
REMARK  157  A    between atoms: _391  and  _392
REMARK  158  A    between atoms: _391  and  _394
REMARK  159  A    between atoms: _394  and  _395
REMARK  160  A    between atoms: _398  and  _400
REMARK  161  A    between atoms: _400  and  _401
REMARK  162  A    between atoms: _403  and  _405
REMARK  163  A    between atoms: _405  and  _406
REMARK  164  A    between atoms: _405  and  _408
REMARK  165  A    between atoms: _408  and  _409
REMARK  166  A    between atoms: _412  and  _414
REMARK  167  A    between atoms: _414  and  _415
REMARK  168  A    between atoms: _414  and  _417
REMARK  169  A    between atoms: _417  and  _418
REMARK  170  A    between atoms: _421  and  _423
REMARK  171  A    between atoms: _423  and  _424
REMARK  172  A    between atoms: _423  and  _426
REMARK  173  A    between atoms: _426  and  _427
REMARK  174  A    between atoms: _430  and  _432
REMARK  175  A    between atoms: _432  and  _433
REMARK  176  A    between atoms: _432  and  _435
REMARK  177  A    between atoms: _435  and  _436
REMARK  178  A    between atoms: _439  and  _441
REMARK  179  A    between atoms: _441  and  _442
REMARK  180  A    between atoms: _441  and  _444
REMARK  181  A    between atoms: _444  and  _445
REMARK  182  A    between atoms: _448  and  _450
REMARK  183  A    between atoms: _450  and  _451
REMARK  184  A    between atoms: _454  and  _456
REMARK  185  A    between atoms: _456  and  _457
REMARK  186  A    between atoms: _459  and  _461
REMARK  187  A    between atoms: _461  and  _462
REMARK  188  A    between atoms: _464  and  _466
REMARK  189  A    between atoms: _466  and  _467
REMARK  190  A    between atoms: _466  and  _469
REMARK  191  A    between atoms: _469  and  _470
REMARK  192  A    between atoms: _475  and  _476
REMARK  193  A    between atoms: _479  and  _480
REMARK  194  A    between atoms: _485  and  _487
REMARK  195  A    between atoms: _487  and  _488
REMARK  196  A    between atoms: _487  and  _490
REMARK  197  A    between atoms: _490  and  _491
REMARK  198  A    between atoms: _493  and  _495
REMARK  199  A    between atoms: _495  and  _496
REMARK  200  A    between atoms: _495  and  _498
REMARK  201  A    between atoms: _498  and  _499
REMARK  202  A    between atoms: _502  and  _504
REMARK  203  A    between atoms: _504  and  _505
REMARK  204  A    between atoms: _507  and  _509
REMARK  205  A    between atoms: _509  and  _510
REMARK  206  A    between atoms: _509  and  _512
REMARK  207  A    between atoms: _512  and  _513
REMARK  208  A    between atoms: _513  and  _514
REMARK  209  A    between atoms: _519  and  _521
REMARK  210  A    between atoms: _521  and  _522
REMARK  211  A    between atoms: _521  and  _524
REMARK  212  A    between atoms: _524  and  _525
REMARK  213  A    between atoms: _527  and  _529
REMARK  214  A    between atoms: _529  and  _530
REMARK  215  A    between atoms: _529  and  _532
REMARK  216  A    between atoms: _532  and  _533
REMARK  217  A    between atoms: _538  and  _540
REMARK  218  A    between atoms: _540  and  _541
REMARK  219  A    between atoms: _540  and  _543
REMARK  220  A    between atoms: _543  and  _544
REMARK  221  A    between atoms: _546  and  _548
REMARK  222  A    between atoms: _548  and  _549
REMARK  223  A    between atoms: _548  and  _551
REMARK  224  A    between atoms: _551  and  _552
REMARK  225  A    between atoms: _555  and  _557
REMARK  226  A    between atoms: _557  and  _558
REMARK  227  A    between atoms: _557  and  _560
REMARK  228  A    between atoms: _560  and  _561
REMARK  229  A    between atoms: _567  and  _569
REMARK  230  A    between atoms: _569  and  _570
REMARK  231  A    between atoms: _569  and  _572
REMARK  232  A    between atoms: _572  and  _573
REMARK  233  A    between atoms: _575  and  _577
REMARK  234  A    between atoms: _577  and  _578
REMARK  235  A    between atoms: _577  and  _580
REMARK  236  A    between atoms: _580  and  _581
REMARK  237  A    between atoms: _584  and  _586
REMARK  238  A    between atoms: _586  and  _587
REMARK  239  A    between atoms: _586  and  _589
REMARK  240  A    between atoms: _589  and  _590
REMARK  241  A    between atoms: _596  and  _598
REMARK  242  A    between atoms: _598  and  _599
REMARK  243  A    between atoms: _601  and  _603
REMARK  244  A    between atoms: _603  and  _604
REMARK  245  A    between atoms: _603  and  _606
REMARK  246  A    between atoms: _606  and  _607
REMARK                            x       y       z     vdW  Elec       q    Type
REMARK                         _______ _______ _______ _____ _____    ______ ____
ROOT
ATOM      1  C   ASN A   1      25.722   2.577   9.432  0.00  0.00    +0.239 C 
ATOM      2  N   ASN A   2      26.534   2.601  10.470  0.00  0.00    -0.298 N 
ATOM      3  H   ASN A   2      26.464   1.903  11.238  0.00  0.00    +0.150 HD
ATOM      4  O   ASN A   1      25.815   3.313   8.423  0.00  0.00    -0.274 OA
ENDROOT
BRANCH   1   5
ATOM      5  CA  ASN A   1      24.639   1.433   9.373  0.00  0.00    +0.154 C 
BRANCH   5   6
ATOM      6  N   ASN A   1      25.061   0.263  10.208  0.00  0.00    -0.238 NA
ATOM      7  H   ASN A   1      24.623   0.106  11.138  0.00  0.00    +0.142 HD
ENDBRANCH   5   6
BRANCH   5   8
ATOM      8  CB  ASN A   1      23.318   2.042   9.929  0.00  0.00    +0.111 C 
BRANCH   8   9
ATOM      9  CG  ASN A   1      22.142   1.042   9.668  0.00  0.00    +0.221 C 
ATOM     10  ND2 ASN A   1      21.448   0.804  10.745  0.00  0.00    -0.329 N 
ATOM     11 HD21 ASN A   1      21.676   1.299  11.631  0.00  0.00    +0.145 HD
ATOM     12 HD22 ASN A   1      20.666   0.119  10.719  0.00  0.00    +0.145 HD
ATOM     13  OD1 ASN A   1      22.060   0.584   8.515  0.00  0.00    -0.275 OA
ENDBRANCH   8   9
ENDBRANCH   5   8
ENDBRANCH   1   5
BRANCH   2  14
ATOM     14  CA  ASN A   2      27.546   3.670  10.482  0.00  0.00    +0.146 C 
BRANCH  14  15
ATOM     15  C   ASN A   2      28.906   3.023  10.848  0.00  0.00    +0.227 C 
ATOM     16  O   ASN A   2      28.926   1.924  11.429  0.00  0.00    -0.286 OA
ENDBRANCH  14  15
BRANCH  14  17
ATOM     17  CB  ASN A   2      27.160   4.806  11.427  0.00  0.00    +0.112 C 
BRANCH  17  18
ATOM     18  CG  ASN A   2      27.286   4.477  12.848  0.00  0.00    +0.222 C 
ATOM     19  ND2 ASN A   2      26.154   4.483  13.549  0.00  0.00    -0.329 N 
ATOM     20 HD21 ASN A   2      26.163   4.213  14.553  0.00  0.00    +0.145 HD
ATOM     21 HD22 ASN A   2      25.261   4.757  13.092  0.00  0.00    +0.145 HD
ATOM     22  OD1 ASN A   2      28.275   4.133  13.504  0.00  0.00    -0.275 OA
ENDBRANCH  17  18
ENDBRANCH  14  17
ENDBRANCH   2  14
TORSDOF 8
REMARK  Name = ../refined-set-2016/1ppl/1ppl_pocket.pdb
REMARK  246 active torsions:
REMARK  status: ('A' for Active; 'I' for Inactive)
REMARK    1  A    between atoms: _1  and  _3
REMARK    2  A    between atoms: _3  and  _4
REMARK    3  A    between atoms: _3  and  _6
REMARK    4  A    between atoms: _6  and  _7
REMARK    5  A    between atoms: _10  and  _12
REMARK    6  A    between atoms: _12  and  _13
REMARK    7  A    between atoms: _16  and  _18
REMARK    8  A    between atoms: _18  and  _19
REMARK    9  A    between atoms: _18  and  _21
REMARK   10  A    between atoms: _21  and  _22
REMARK   11  A    between atoms: _27  and  _29
REMARK   12  A    between atoms: _29  and  _30
REMARK   13  A    between atoms: _29  and  _32
REMARK   14  A    between atoms: _32  and  _33
REMARK   15  A    between atoms: _36  and  _38
REMARK   16  A    between atoms: _38  and  _39
REMARK   17  A    between atoms: _38  and  _41
REMARK   18  A    between atoms: _41  and  _42
REMARK   19  A    between atoms: _42  and  _43
REMARK   20  A    between atoms: _46  and  _48
REMARK   21  A    between atoms: _48  and  _49
REMARK   22  A    between atoms: _48  and  _51
REMARK   23  A    between atoms: _51  and  _52
REMARK   24  A    between atoms: _52  and  _53
REMARK   25  A    between atoms: _56  and  _58
REMARK   26  A    between atoms: _58  and  _59
REMARK   27  A    between atoms: _58  and  _61
REMARK   28  A    between atoms: _61  and  _62
REMARK   29  A    between atoms: _67  and  _68
REMARK   30  A    between atoms: _70  and  _72
REMARK   31  A    between atoms: _72  and  _73
REMARK   32  A    between atoms: _72  and  _75
REMARK   33  A    between atoms: _75  and  _76
REMARK   34  A    between atoms: _81  and  _83
REMARK   35  A    between atoms: _83  and  _84
REMARK   36  A    between atoms: _83  and  _86
REMARK   37  A    between atoms: _86  and  _87
REMARK   38  A    between atoms: _93  and  _95
REMARK   39  A    between atoms: _95  and  _96
REMARK   40  A    between atoms: _95  and  _98
REMARK   41  A    between atoms: _98  and  _99
REMARK   42  A    between atoms: _102  and  _104
REMARK   43  A    between atoms: _104  and  _105
REMARK   44  A    between atoms: _104  and  _107
REMARK   45  A    between atoms: _107  and  _108
REMARK   46  A    between atoms: _111  and  _113
REMARK   47  A    between atoms: _113  and  _114
REMARK   48  A    between atoms: _116  and  _118
REMARK   49  A    between atoms: _118  and  _119
REMARK   50  A    between atoms: _118  and  _121
REMARK   51  A    between atoms: _121  and  _122
REMARK   52  A    between atoms: _124  and  _126
REMARK   53  A    between atoms: _126  and  _127
REMARK   54  A    between atoms: _130  and  _132
REMARK   55  A    between atoms: _132  and  _133
REMARK   56  A    between atoms: _132  and  _135
REMARK   57  A    between atoms: _135  and  _136
REMARK   58  A    between atoms: _139  and  _141
REMARK   59  A    between atoms: _141  and  _142
REMARK   60  A    between atoms: _141  and  _144
REMARK   61  A    between atoms: _144  and  _145
REMARK   62  A    between atoms: _155  and  _157
REMARK   63  A    between atoms: _157  and  _158
REMARK   64  A    between atoms: _157  and  _160
REMARK   65  A    between atoms: _160  and  _161
REMARK   66  A    between atoms: _164  and  _166
REMARK   67  A    between atoms: _166  and  _167
REMARK   68  A    between atoms: _166  and  _169
REMARK   69  A    between atoms: _169  and  _170
REMARK   70  A    between atoms: _172  and  _174
REMARK   71  A    between atoms: _174  and  _175
REMARK   72  A    between atoms: _174  and  _177
REMARK   73  A    between atoms: _177  and  _178
REMARK   74  A    between atoms: _183  and  _184
REMARK   75  A    between atoms: _186  and  _188
REMARK   76  A    between atoms: _188  and  _189
REMARK   77  A    between atoms: _191  and  _193
REMARK   78  A    between atoms: _193  and  _194
REMARK   79  A    between atoms: _193  and  _196
REMARK   80  A    between atoms: _196  and  _197
REMARK   81  A    between atoms: _200  and  _202
REMARK   82  A    between atoms: _202  and  _203
REMARK   83  A    between atoms: _205  and  _207
REMARK   84  A    between atoms: _207  and  _208
REMARK   85  A    between atoms: _207  and  _210
REMARK   86  A    between atoms: _210  and  _211
REMARK   87  A    between atoms: _213  and  _215
REMARK   88  A    between atoms: _215  and  _216
REMARK   89  A    between atoms: _215  and  _218
REMARK   90  A    between atoms: _218  and  _219
REMARK   91  A    between atoms: _221  and  _223
REMARK   92  A    between atoms: _223  and  _224
REMARK   93  A    between atoms: _223  and  _226
REMARK   94  A    between atoms: _226  and  _227
REMARK   95  A    between atoms: _227  and  _228
REMARK   96  A    between atoms: _233  and  _235
REMARK   97  A    between atoms: _235  and  _236
REMARK   98  A    between atoms: _235  and  _238
REMARK   99  A    between atoms: _238  and  _239
REMARK  100  A    between atoms: _245  and  _247
REMARK  101  A    between atoms: _247  and  _248
REMARK  102  A    between atoms: _247  and  _250
REMARK  103  A    between atoms: _250  and  _251
REMARK  104  A    between atoms: _254  and  _256
REMARK  105  A    between atoms: _256  and  _257
REMARK  106  A    between atoms: _256  and  _259
REMARK  107  A    between atoms: _259  and  _260
REMARK  108  A    between atoms: _265  and  _267
REMARK  109  A    between atoms: _267  and  _268
REMARK  110  A    between atoms: _267  and  _270
REMARK  111  A    between atoms: _270  and  _271
REMARK  112  A    between atoms: _276  and  _278
REMARK  113  A    between atoms: _278  and  _279
REMARK  114  A    between atoms: _281  and  _283
REMARK  115  A    between atoms: _283  and  _284
REMARK  116  A    between atoms: _283  and  _286
REMARK  117  A    between atoms: _286  and  _287
REMARK  118  A    between atoms: _290  and  _292
REMARK  119  A    between atoms: _292  and  _293
REMARK  120  A    between atoms: _292  and  _295
REMARK  121  A    between atoms: _295  and  _296
REMARK  122  A    between atoms: _299  and  _301
REMARK  123  A    between atoms: _301  and  _302
REMARK  124  A    between atoms: _304  and  _306
REMARK  125  A    between atoms: _306  and  _307
REMARK  126  A    between atoms: _306  and  _309
REMARK  127  A    between atoms: _309  and  _310
REMARK  128  A    between atoms: _313  and  _315
REMARK  129  A    between atoms: _315  and  _316
REMARK  130  A    between atoms: _319  and  _321
REMARK  131  A    between atoms: _321  and  _322
REMARK  132  A    between atoms: _321  and  _324
REMARK  133  A    between atoms: _324  and  _325
REMARK  134  A    between atoms: _328  and  _330
REMARK  135  A    between atoms: _330  and  _331
REMARK  136  A    between atoms: _330  and  _333
REMARK  137  A    between atoms: _333  and  _334
REMARK  138  A    between atoms: _337  and  _339
REMARK  139  A    between atoms: _339  and  _340
REMARK  140  A    between atoms: _339  and  _342
REMARK  141  A    between atoms: _342  and  _343
REMARK  142  A    between atoms: _349  and  _351
REMARK  143  A    between atoms: _351  and  _352
REMARK  144  A    between atoms: _351  and  _354
REMARK  145  A    between atoms: _354  and  _355
REMARK  146  A    between atoms: _365  and  _367
REMARK  147  A    between atoms: _367  and  _368
REMARK  148  A    between atoms: _367  and  _370
REMARK  149  A    between atoms: _370  and  _371
REMARK  150  A    between atoms: _374  and  _376
REMARK  151  A    between atoms: _376  and  _377
REMARK  152  A    between atoms: _380  and  _382
REMARK  153  A    between atoms: _382  and  _383
REMARK  154  A    between atoms: _382  and  _385
REMARK  155  A    between atoms: _385  and  _386
REMARK  156  A    between atoms: _389  and  _391
REMARK  157  A    between atoms: _391  and  _392
REMARK  158  A    between atoms: _391  and  _394
REMARK  159  A    between atoms: _394  and  _395
REMARK  160  A    between atoms: _398  and  _400
REMARK  161  A    between atoms: _400  and  _401
REMARK  162  A    between atoms: _403  and  _405
REMARK  163  A    between atoms: _405  and  _406
REMARK  164  A    between atoms: _405  and  _408
REMARK  165  A    between atoms: _408  and  _409
REMARK  166  A    between atoms: _412  and  _414
REMARK  167  A    between atoms: _414  and  _415
REMARK  168  A    between atoms: _414  and  _417
REMARK  169  A    between atoms: _417  and  _418
REMARK  170  A    between atoms: _421  and  _423
REMARK  171  A    between atoms: _423  and  _424
REMARK  172  A    between atoms: _423  and  _426
REMARK  173  A    between atoms: _426  and  _427
REMARK  174  A    between atoms: _430  and  _432
REMARK  175  A    between atoms: _432  and  _433
REMARK  176  A    between atoms: _432  and  _435
REMARK  177  A    between atoms: _435  and  _436
REMARK  178  A    between atoms: _439  and  _441
REMARK  179  A    between atoms: _441  and  _442
REMARK  180  A    between atoms: _441  and  _444
REMARK  181  A    between atoms: _444  and  _445
REMARK  182  A    between atoms: _448  and  _450
REMARK  183  A    between atoms: _450  and  _451
REMARK  184  A    between atoms: _454  and  _456
REMARK  185  A    between atoms: _456  and  _457
REMARK  186  A    between atoms: _459  and  _461
REMARK  187  A    between atoms: _461  and  _462
REMARK  188  A    between atoms: _464  and  _466
REMARK  189  A    between atoms: _466  and  _467
REMARK  190  A    between atoms: _466  and  _469
REMARK  191  A    between atoms: _469  and  _470
REMARK  192  A    between atoms: _475  and  _476
REMARK  193  A    between atoms: _479  and  _480
REMARK  194  A    between atoms: _485  and  _487
REMARK  195  A    between atoms: _487  and  _488
REMARK  196  A    between atoms: _487  and  _490
REMARK  197  A    between atoms: _490  and  _491
REMARK  198  A    between atoms: _493  and  _495
REMARK  199  A    between atoms: _495  and  _496
REMARK  200  A    between atoms: _495  and  _498
REMARK  201  A    between atoms: _498  and  _499
REMARK  202  A    between atoms: _502  and  _504
REMARK  203  A    between atoms: _504  and  _505
REMARK  204  A    between atoms: _507  and  _509
REMARK  205  A    between atoms: _509  and  _510
REMARK  206  A    between atoms: _509  and  _512
REMARK  207  A    between atoms: _512  and  _513
REMARK  208  A    between atoms: _513  and  _514
REMARK  209  A    between atoms: _519  and  _521
REMARK  210  A    between atoms: _521  and  _522
REMARK  211  A    between atoms: _521  and  _524
REMARK  212  A    between atoms: _524  and  _525
REMARK  213  A    between atoms: _527  and  _529
REMARK  214  A    between atoms: _529  and  _530
REMARK  215  A    between atoms: _529  and  _532
REMARK  216  A    between atoms: _532  and  _533
REMARK  217  A    between atoms: _538  and  _540
REMARK  218  A    between atoms: _540  and  _541
REMARK  219  A    between atoms: _540  and  _543
REMARK  220  A    between atoms: _543  and  _544
REMARK  221  A    between atoms: _546  and  _548
REMARK  222  A    between atoms: _548  and  _549
REMARK  223  A    between atoms: _548  and  _551
REMARK  224  A    between atoms: _551  and  _552
REMARK  225  A    between atoms: _555  and  _557
REMARK  226  A    between atoms: _557  and  _558
REMARK  227  A    between atoms: _557  and  _560
REMARK  228  A    between atoms: _560  and  _561
REMARK  229  A    between atoms: _567  and  _569
REMARK  230  A    between atoms: _569  and  _570
REMARK  231  A    between atoms: _569  and  _572
REMARK  232  A    between atoms: _572  and  _573
REMARK  233  A    between atoms: _575  and  _577
REMARK  234  A    between atoms: _577  and  _578
REMARK  235  A    between atoms: _577  and  _580
REMARK  236  A    between atoms: _580  and  _581
REMARK  237  A    between atoms: _584  and  _586
REMARK  238  A    between atoms: _586  and  _587
REMARK  239  A    between atoms: _586  and  _589
REMARK  240  A    between atoms: _589  and  _590
REMARK  241  A    between atoms: _596  and  _598
REMARK  242  A    between atoms: _598  and  _599
REMARK  243  A    between atoms: _601  and  _603
REMARK  244  A    between atoms: _603  and  _604
REMARK  245  A    between atoms: _603  and  _606
REMARK  246  A    between atoms: _606  and  _607
REMARK                            x       y       z     vdW  Elec       q    Type
REMARK                         _______ _______ _______ _____ _____    ______ ____
ROOT
ATOM      1  C   LEU A   3      30.392  14.034  14.854  0.00  0.00    +0.241 C 
ATOM      2  N   GLY A   4      30.999  14.444  15.972  0.00  0.00    -0.295 N 
ATOM      3  H   GLY A   4      31.969  14.133  16.181  0.00  0.00    +0.150 HD
ATOM      4  O   LEU A   3      29.212  14.401  14.549  0.00  0.00    -0.273 OA
ENDROOT
BRANCH   2   5
ATOM      5  CA  GLY A   4      30.318  15.306  16.876  0.00  0.00    +0.176 C 
BRANCH   5   6
ATOM      6  C   GLY A   4      30.259  16.762  16.408  0.00  0.00    +0.243 C 
ATOM      7  N   LEU A   5      29.129  17.420  16.670  0.00  0.00    -0.297 N 
ATOM      8  H   LEU A   5      28.331  16.926  17.119  0.00  0.00    +0.150 HD
ATOM      9  O   GLY A   4      31.318  17.276  15.963  0.00  0.00    -0.273 OA
BRANCH   7  10
ATOM     10  CA  LEU A   5      29.013  18.823  16.329  0.00  0.00    +0.149 C 
BRANCH  10  11
ATOM     11  C   LEU A   5      28.470  19.681  17.486  0.00  0.00    +0.241 C 
ATOM     12  N   ALA A   6      28.492  19.178  18.654  0.00  0.00    -0.298 N 
ATOM     13  H   ALA A   6      28.743  18.174  18.759  0.00  0.00    +0.150 HD
ATOM     14  O   LEU A   5      28.022  20.780  17.206  0.00  0.00    -0.273 OA
BRANCH  12  15
ATOM     15  CA  ALA A   6      28.173  19.966  19.878  0.00  0.00    +0.137 C 
ATOM     16  CB  ALA A   6      27.930  18.965  20.991  0.00  0.00    +0.030 C 
BRANCH  15  17
ATOM     17  C   ALA A   6      29.416  20.860  20.131  0.00  0.00    +0.227 C 
ATOM     18  O   ALA A   6      30.421  20.891  19.339  0.00  0.00    -0.286 OA
ENDBRANCH  15  17
ENDBRANCH  12  15
ENDBRANCH  10  11
BRANCH  10  19
ATOM     19  CB  LEU A   5      28.107  18.936  15.046  0.00  0.00    +0.029 C 
BRANCH  19  20
ATOM     20  CG  LEU A   5      28.822  18.459  13.748  0.00  0.00    +0.002 C 
ATOM     21  CD2 LEU A   5      29.896  19.383  13.248  0.00  0.00    +0.000 C 
ATOM     22  CD1 LEU A   5      27.739  18.339  12.643  0.00  0.00    +0.000 C 
ENDBRANCH  19  20
ENDBRANCH  10  19
ENDBRANCH   7  10
ENDBRANCH   5   6
ENDBRANCH   2   5
BRANCH   1  23
ATOM     23  CA  LEU A   3      31.115  13.060  13.955  0.00  0.00    +0.149 C 
BRANCH  23  26
ATOM     24  C   LEU A   2      30.960  10.715  14.642  0.00  0.00    +0.241 C 
ATOM     25  O   LEU A   2      32.172  10.633  14.947  0.00  0.00    -0.273 OA
ATOM     26  N   LEU A   3      30.349  11.774  14.104  0.00  0.00    -0.297 N 
ATOM     27  H   LEU A   3      29.359  11.710  13.793  0.00  0.00    +0.150 HD
BRANCH  24  28
ATOM     28  CA  LEU A   2      30.089   9.495  14.915  0.00  0.00    +0.149 C 
BRANCH  28  30
ATOM     29  C   GLY A   1      30.418   7.306  13.850  0.00  0.00    +0.240 C 
ATOM     30  N   LEU A   2      30.788   8.243  14.725  0.00  0.00    -0.297 N 
ATOM     31  H   LEU A   2      31.631   8.062  15.306  0.00  0.00    +0.150 HD
ATOM     32  O   GLY A   1      29.436   7.425  13.121  0.00  0.00    -0.274 OA
BRANCH  29  33
ATOM     33  CA  GLY A   1      31.282   6.003  13.918  0.00  0.00    +0.169 C 
BRANCH  33  34
ATOM     34  N   GLY A   1      30.904   5.101  12.832  0.00  0.00    -0.236 NA
ATOM     35  H   GLY A   1      29.894   4.942  12.643  0.00  0.00    +0.142 HD
ENDBRANCH  33  34
ENDBRANCH  29  33
ENDBRANCH  28  30
BRANCH  28  36
ATOM     36  CB  LEU A   2      29.676   9.507  16.407  0.00  0.00    +0.029 C 
BRANCH  36  37
ATOM     37  CG  LEU A   2      28.205   9.129  16.610  0.00  0.00    +0.002 C 
ATOM     38  CD2 LEU A   2      27.819   9.560  17.993  0.00  0.00    +0.000 C 
ATOM     39  CD1 LEU A   2      28.125   7.616  16.512  0.00  0.00    +0.000 C 
ENDBRANCH  36  37
ENDBRANCH  28  36
ENDBRANCH  24  28
ENDBRANCH  23  26
BRANCH  23  40
ATOM     40  CB  LEU A   3      31.207  13.437  12.508  0.00  0.00    +0.029 C 
BRANCH  40  41
ATOM     41  CG  LEU A   3      32.098  14.666  12.247  0.00  0.00    +0.002 C 
ATOM     42  CD2 LEU A   3      31.306  15.962  12.354  0.00  0.00    +0.000 C 
ATOM     43  CD1 LEU A   3      32.802  14.525  10.899  0.00  0.00    +0.000 C 
ENDBRANCH  40  41
ENDBRANCH  23  40
ENDBRANCH   1  23
TORSDOF 18
REMARK  Name = ../refined-set-2016/1ppl/1ppl_pocket.pdb
REMARK  246 active torsions:
REMARK  status: ('A' for Active; 'I' for Inactive)
REMARK    1  A    between atoms: _1  and  _3
REMARK    2  A    between atoms: _3  and  _4
REMARK    3  A    between atoms: _3  and  _6
REMARK    4  A    between atoms: _6  and  _7
REMARK    5  A    between atoms: _10  and  _12
REMARK    6  A    between atoms: _12  and  _13
REMARK    7  A    between atoms: _16  and  _18
REMARK    8  A    between atoms: _18  and  _19
REMARK    9  A    between atoms: _18  and  _21
REMARK   10  A    between atoms: _21  and  _22
REMARK   11  A    between atoms: _27  and  _29
REMARK   12  A    between atoms: _29  and  _30
REMARK   13  A    between atoms: _29  and  _32
REMARK   14  A    between atoms: _32  and  _33
REMARK   15  A    between atoms: _36  and  _38
REMARK   16  A    between atoms: _38  and  _39
REMARK   17  A    between atoms: _38  and  _41
REMARK   18  A    between atoms: _41  and  _42
REMARK   19  A    between atoms: _42  and  _43
REMARK   20  A    between atoms: _46  and  _48
REMARK   21  A    between atoms: _48  and  _49
REMARK   22  A    between atoms: _48  and  _51
REMARK   23  A    between atoms: _51  and  _52
REMARK   24  A    between atoms: _52  and  _53
REMARK   25  A    between atoms: _56  and  _58
REMARK   26  A    between atoms: _58  and  _59
REMARK   27  A    between atoms: _58  and  _61
REMARK   28  A    between atoms: _61  and  _62
REMARK   29  A    between atoms: _67  and  _68
REMARK   30  A    between atoms: _70  and  _72
REMARK   31  A    between atoms: _72  and  _73
REMARK   32  A    between atoms: _72  and  _75
REMARK   33  A    between atoms: _75  and  _76
REMARK   34  A    between atoms: _81  and  _83
REMARK   35  A    between atoms: _83  and  _84
REMARK   36  A    between atoms: _83  and  _86
REMARK   37  A    between atoms: _86  and  _87
REMARK   38  A    between atoms: _93  and  _95
REMARK   39  A    between atoms: _95  and  _96
REMARK   40  A    between atoms: _95  and  _98
REMARK   41  A    between atoms: _98  and  _99
REMARK   42  A    between atoms: _102  and  _104
REMARK   43  A    between atoms: _104  and  _105
REMARK   44  A    between atoms: _104  and  _107
REMARK   45  A    between atoms: _107  and  _108
REMARK   46  A    between atoms: _111  and  _113
REMARK   47  A    between atoms: _113  and  _114
REMARK   48  A    between atoms: _116  and  _118
REMARK   49  A    between atoms: _118  and  _119
REMARK   50  A    between atoms: _118  and  _121
REMARK   51  A    between atoms: _121  and  _122
REMARK   52  A    between atoms: _124  and  _126
REMARK   53  A    between atoms: _126  and  _127
REMARK   54  A    between atoms: _130  and  _132
REMARK   55  A    between atoms: _132  and  _133
REMARK   56  A    between atoms: _132  and  _135
REMARK   57  A    between atoms: _135  and  _136
REMARK   58  A    between atoms: _139  and  _141
REMARK   59  A    between atoms: _141  and  _142
REMARK   60  A    between atoms: _141  and  _144
REMARK   61  A    between atoms: _144  and  _145
REMARK   62  A    between atoms: _155  and  _157
REMARK   63  A    between atoms: _157  and  _158
REMARK   64  A    between atoms: _157  and  _160
REMARK   65  A    between atoms: _160  and  _161
REMARK   66  A    between atoms: _164  and  _166
REMARK   67  A    between atoms: _166  and  _167
REMARK   68  A    between atoms: _166  and  _169
REMARK   69  A    between atoms: _169  and  _170
REMARK   70  A    between atoms: _172  and  _174
REMARK   71  A    between atoms: _174  and  _175
REMARK   72  A    between atoms: _174  and  _177
REMARK   73  A    between atoms: _177  and  _178
REMARK   74  A    between atoms: _183  and  _184
REMARK   75  A    between atoms: _186  and  _188
REMARK   76  A    between atoms: _188  and  _189
REMARK   77  A    between atoms: _191  and  _193
REMARK   78  A    between atoms: _193  and  _194
REMARK   79  A    between atoms: _193  and  _196
REMARK   80  A    between atoms: _196  and  _197
REMARK   81  A    between atoms: _200  and  _202
REMARK   82  A    between atoms: _202  and  _203
REMARK   83  A    between atoms: _205  and  _207
REMARK   84  A    between atoms: _207  and  _208
REMARK   85  A    between atoms: _207  and  _210
REMARK   86  A    between atoms: _210  and  _211
REMARK   87  A    between atoms: _213  and  _215
REMARK   88  A    between atoms: _215  and  _216
REMARK   89  A    between atoms: _215  and  _218
REMARK   90  A    between atoms: _218  and  _219
REMARK   91  A    between atoms: _221  and  _223
REMARK   92  A    between atoms: _223  and  _224
REMARK   93  A    between atoms: _223  and  _226
REMARK   94  A    between atoms: _226  and  _227
REMARK   95  A    between atoms: _227  and  _228
REMARK   96  A    between atoms: _233  and  _235
REMARK   97  A    between atoms: _235  and  _236
REMARK   98  A    between atoms: _235  and  _238
REMARK   99  A    between atoms: _238  and  _239
REMARK  100  A    between atoms: _245  and  _247
REMARK  101  A    between atoms: _247  and  _248
REMARK  102  A    between atoms: _247  and  _250
REMARK  103  A    between atoms: _250  and  _251
REMARK  104  A    between atoms: _254  and  _256
REMARK  105  A    between atoms: _256  and  _257
REMARK  106  A    between atoms: _256  and  _259
REMARK  107  A    between atoms: _259  and  _260
REMARK  108  A    between atoms: _265  and  _267
REMARK  109  A    between atoms: _267  and  _268
REMARK  110  A    between atoms: _267  and  _270
REMARK  111  A    between atoms: _270  and  _271
REMARK  112  A    between atoms: _276  and  _278
REMARK  113  A    between atoms: _278  and  _279
REMARK  114  A    between atoms: _281  and  _283
REMARK  115  A    between atoms: _283  and  _284
REMARK  116  A    between atoms: _283  and  _286
REMARK  117  A    between atoms: _286  and  _287
REMARK  118  A    between atoms: _290  and  _292
REMARK  119  A    between atoms: _292  and  _293
REMARK  120  A    between atoms: _292  and  _295
REMARK  121  A    between atoms: _295  and  _296
REMARK  122  A    between atoms: _299  and  _301
REMARK  123  A    between atoms: _301  and  _302
REMARK  124  A    between atoms: _304  and  _306
REMARK  125  A    between atoms: _306  and  _307
REMARK  126  A    between atoms: _306  and  _309
REMARK  127  A    between atoms: _309  and  _310
REMARK  128  A    between atoms: _313  and  _315
REMARK  129  A    between atoms: _315  and  _316
REMARK  130  A    between atoms: _319  and  _321
REMARK  131  A    between atoms: _321  and  _322
REMARK  132  A    between atoms: _321  and  _324
REMARK  133  A    between atoms: _324  and  _325
REMARK  134  A    between atoms: _328  and  _330
REMARK  135  A    between atoms: _330  and  _331
REMARK  136  A    between atoms: _330  and  _333
REMARK  137  A    between atoms: _333  and  _334
REMARK  138  A    between atoms: _337  and  _339
REMARK  139  A    between atoms: _339  and  _340
REMARK  140  A    between atoms: _339  and  _342
REMARK  141  A    between atoms: _342  and  _343
REMARK  142  A    between atoms: _349  and  _351
REMARK  143  A    between atoms: _351  and  _352
REMARK  144  A    between atoms: _351  and  _354
REMARK  145  A    between atoms: _354  and  _355
REMARK  146  A    between atoms: _365  and  _367
REMARK  147  A    between atoms: _367  and  _368
REMARK  148  A    between atoms: _367  and  _370
REMARK  149  A    between atoms: _370  and  _371
REMARK  150  A    between atoms: _374  and  _376
REMARK  151  A    between atoms: _376  and  _377
REMARK  152  A    between atoms: _380  and  _382
REMARK  153  A    between atoms: _382  and  _383
REMARK  154  A    between atoms: _382  and  _385
REMARK  155  A    between atoms: _385  and  _386
REMARK  156  A    between atoms: _389  and  _391
REMARK  157  A    between atoms: _391  and  _392
REMARK  158  A    between atoms: _391  and  _394
REMARK  159  A    between atoms: _394  and  _395
REMARK  160  A    between atoms: _398  and  _400
REMARK  161  A    between atoms: _400  and  _401
REMARK  162  A    between atoms: _403  and  _405
REMARK  163  A    between atoms: _405  and  _406
REMARK  164  A    between atoms: _405  and  _408
REMARK  165  A    between atoms: _408  and  _409
REMARK  166  A    between atoms: _412  and  _414
REMARK  167  A    between atoms: _414  and  _415
REMARK  168  A    between atoms: _414  and  _417
REMARK  169  A    between atoms: _417  and  _418
REMARK  170  A    between atoms: _421  and  _423
REMARK  171  A    between atoms: _423  and  _424
REMARK  172  A    between atoms: _423  and  _426
REMARK  173  A    between atoms: _426  and  _427
REMARK  174  A    between atoms: _430  and  _432
REMARK  175  A    between atoms: _432  and  _433
REMARK  176  A    between atoms: _432  and  _435
REMARK  177  A    between atoms: _435  and  _436
REMARK  178  A    between atoms: _439  and  _441
REMARK  179  A    between atoms: _441  and  _442
REMARK  180  A    between atoms: _441  and  _444
REMARK  181  A    between atoms: _444  and  _445
REMARK  182  A    between atoms: _448  and  _450
REMARK  183  A    between atoms: _450  and  _451
REMARK  184  A    between atoms: _454  and  _456
REMARK  185  A    between atoms: _456  and  _457
REMARK  186  A    between atoms: _459  and  _461
REMARK  187  A    between atoms: _461  and  _462
REMARK  188  A    between atoms: _464  and  _466
REMARK  189  A    between atoms: _466  and  _467
REMARK  190  A    between atoms: _466  and  _469
REMARK  191  A    between atoms: _469  and  _470
REMARK  192  A    between atoms: _475  and  _476
REMARK  193  A    between atoms: _479  and  _480
REMARK  194  A    between atoms: _485  and  _487
REMARK  195  A    between atoms: _487  and  _488
REMARK  196  A    between atoms: _487  and  _490
REMARK  197  A    between atoms: _490  and  _491
REMARK  198  A    between atoms: _493  and  _495
REMARK  199  A    between atoms: _495  and  _496
REMARK  200  A    between atoms: _495  and  _498
REMARK  201  A    between atoms: _498  and  _499
REMARK  202  A    between atoms: _502  and  _504
REMARK  203  A    between atoms: _504  and  _505
REMARK  204  A    between atoms: _507  and  _509
REMARK  205  A    between atoms: _509  and  _510
REMARK  206  A    between atoms: _509  and  _512
REMARK  207  A    between atoms: _512  and  _513
REMARK  208  A    between atoms: _513  and  _514
REMARK  209  A    between atoms: _519  and  _521
REMARK  210  A    between atoms: _521  and  _522
REMARK  211  A    between atoms: _521  and  _524
REMARK  212  A    between atoms: _524  and  _525
REMARK  213  A    between atoms: _527  and  _529
REMARK  214  A    between atoms: _529  and  _530
REMARK  215  A    between atoms: _529  and  _532
REMARK  216  A    between atoms: _532  and  _533
REMARK  217  A    between atoms: _538  and  _540
REMARK  218  A    between atoms: _540  and  _541
REMARK  219  A    between atoms: _540  and  _543
REMARK  220  A    between atoms: _543  and  _544
REMARK  221  A    between atoms: _546  and  _548
REMARK  222  A    between atoms: _548  and  _549
REMARK  223  A    between atoms: _548  and  _551
REMARK  224  A    between atoms: _551  and  _552
REMARK  225  A    between atoms: _555  and  _557
REMARK  226  A    between atoms: _557  and  _558
REMARK  227  A    between atoms: _557  and  _560
REMARK  228  A    between atoms: _560  and  _561
REMARK  229  A    between atoms: _567  and  _569
REMARK  230  A    between atoms: _569  and  _570
REMARK  231  A    between atoms: _569  and  _572
REMARK  232  A    between atoms: _572  and  _573
REMARK  233  A    between atoms: _575  and  _577
REMARK  234  A    between atoms: _577  and  _578
REMARK  235  A    between atoms: _577  and  _580
REMARK  236  A    between atoms: _580  and  _581
REMARK  237  A    between atoms: _584  and  _586
REMARK  238  A    between atoms: _586  and  _587
REMARK  239  A    between atoms: _586  and  _589
REMARK  240  A    between atoms: _589  and  _590
REMARK  241  A    between atoms: _596  and  _598
REMARK  242  A    between atoms: _598  and  _599
REMARK  243  A    between atoms: _601  and  _603
REMARK  244  A    between atoms: _603  and  _604
REMARK  245  A    between atoms: _603  and  _606
REMARK  246  A    between atoms: _606  and  _607
REMARK                            x       y       z     vdW  Elec       q    Type
REMARK                         _______ _______ _______ _____ _____    ______ ____
ROOT
ATOM      1  CA  ILE A   1      32.428  18.620  26.132  0.00  0.00    +0.133 C 
ENDROOT
BRANCH   1   2
ATOM      2  N   ILE A   1      32.787  19.955  25.652  0.00  0.00    -0.239 NA
ATOM      3  H   ILE A   1      32.407  20.272  24.737  0.00  0.00    +0.142 HD
ENDBRANCH   1   2
BRANCH   1   4
ATOM      4  CB  ILE A   1      30.884  18.412  26.286  0.00  0.00    +0.023 C 
ATOM      5  CG2 ILE A   1      30.311  19.464  27.278  0.00  0.00    +0.002 C 
BRANCH   4   6
ATOM      6  CG1 ILE A   1      30.142  18.465  24.910  0.00  0.00    +0.002 C 
ATOM      7  CD1 ILE A   1      28.689  17.906  24.965  0.00  0.00    +0.000 C 
ENDBRANCH   4   6
ENDBRANCH   1   4
BRANCH   1   8
ATOM      8  C   ILE A   1      33.140  17.456  25.406  0.00  0.00    +0.224 C 
ATOM      9  O   ILE A   1      32.772  16.273  25.590  0.00  0.00    -0.287 OA
ENDBRANCH   1   8
TORSDOF 4
REMARK  Name = ../refined-set-2016/1ppl/1ppl_pocket.pdb
REMARK  246 active torsions:
REMARK  status: ('A' for Active; 'I' for Inactive)
REMARK    1  A    between atoms: _1  and  _3
REMARK    2  A    between atoms: _3  and  _4
REMARK    3  A    between atoms: _3  and  _6
REMARK    4  A    between atoms: _6  and  _7
REMARK    5  A    between atoms: _10  and  _12
REMARK    6  A    between atoms: _12  and  _13
REMARK    7  A    between atoms: _16  and  _18
REMARK    8  A    between atoms: _18  and  _19
REMARK    9  A    between atoms: _18  and  _21
REMARK   10  A    between atoms: _21  and  _22
REMARK   11  A    between atoms: _27  and  _29
REMARK   12  A    between atoms: _29  and  _30
REMARK   13  A    between atoms: _29  and  _32
REMARK   14  A    between atoms: _32  and  _33
REMARK   15  A    between atoms: _36  and  _38
REMARK   16  A    between atoms: _38  and  _39
REMARK   17  A    between atoms: _38  and  _41
REMARK   18  A    between atoms: _41  and  _42
REMARK   19  A    between atoms: _42  and  _43
REMARK   20  A    between atoms: _46  and  _48
REMARK   21  A    between atoms: _48  and  _49
REMARK   22  A    between atoms: _48  and  _51
REMARK   23  A    between atoms: _51  and  _52
REMARK   24  A    between atoms: _52  and  _53
REMARK   25  A    between atoms: _56  and  _58
REMARK   26  A    between atoms: _58  and  _59
REMARK   27  A    between atoms: _58  and  _61
REMARK   28  A    between atoms: _61  and  _62
REMARK   29  A    between atoms: _67  and  _68
REMARK   30  A    between atoms: _70  and  _72
REMARK   31  A    between atoms: _72  and  _73
REMARK   32  A    between atoms: _72  and  _75
REMARK   33  A    between atoms: _75  and  _76
REMARK   34  A    between atoms: _81  and  _83
REMARK   35  A    between atoms: _83  and  _84
REMARK   36  A    between atoms: _83  and  _86
REMARK   37  A    between atoms: _86  and  _87
REMARK   38  A    between atoms: _93  and  _95
REMARK   39  A    between atoms: _95  and  _96
REMARK   40  A    between atoms: _95  and  _98
REMARK   41  A    between atoms: _98  and  _99
REMARK   42  A    between atoms: _102  and  _104
REMARK   43  A    between atoms: _104  and  _105
REMARK   44  A    between atoms: _104  and  _107
REMARK   45  A    between atoms: _107  and  _108
REMARK   46  A    between atoms: _111  and  _113
REMARK   47  A    between atoms: _113  and  _114
REMARK   48  A    between atoms: _116  and  _118
REMARK   49  A    between atoms: _118  and  _119
REMARK   50  A    between atoms: _118  and  _121
REMARK   51  A    between atoms: _121  and  _122
REMARK   52  A    between atoms: _124  and  _126
REMARK   53  A    between atoms: _126  and  _127
REMARK   54  A    between atoms: _130  and  _132
REMARK   55  A    between atoms: _132  and  _133
REMARK   56  A    between atoms: _132  and  _135
REMARK   57  A    between atoms: _135  and  _136
REMARK   58  A    between atoms: _139  and  _141
REMARK   59  A    between atoms: _141  and  _142
REMARK   60  A    between atoms: _141  and  _144
REMARK   61  A    between atoms: _144  and  _145
REMARK   62  A    between atoms: _155  and  _157
REMARK   63  A    between atoms: _157  and  _158
REMARK   64  A    between atoms: _157  and  _160
REMARK   65  A    between atoms: _160  and  _161
REMARK   66  A    between atoms: _164  and  _166
REMARK   67  A    between atoms: _166  and  _167
REMARK   68  A    between atoms: _166  and  _169
REMARK   69  A    between atoms: _169  and  _170
REMARK   70  A    between atoms: _172  and  _174
REMARK   71  A    between atoms: _174  and  _175
REMARK   72  A    between atoms: _174  and  _177
REMARK   73  A    between atoms: _177  and  _178
REMARK   74  A    between atoms: _183  and  _184
REMARK   75  A    between atoms: _186  and  _188
REMARK   76  A    between atoms: _188  and  _189
REMARK   77  A    between atoms: _191  and  _193
REMARK   78  A    between atoms: _193  and  _194
REMARK   79  A    between atoms: _193  and  _196
REMARK   80  A    between atoms: _196  and  _197
REMARK   81  A    between atoms: _200  and  _202
REMARK   82  A    between atoms: _202  and  _203
REMARK   83  A    between atoms: _205  and  _207
REMARK   84  A    between atoms: _207  and  _208
REMARK   85  A    between atoms: _207  and  _210
REMARK   86  A    between atoms: _210  and  _211
REMARK   87  A    between atoms: _213  and  _215
REMARK   88  A    between atoms: _215  and  _216
REMARK   89  A    between atoms: _215  and  _218
REMARK   90  A    between atoms: _218  and  _219
REMARK   91  A    between atoms: _221  and  _223
REMARK   92  A    between atoms: _223  and  _224
REMARK   93  A    between atoms: _223  and  _226
REMARK   94  A    between atoms: _226  and  _227
REMARK   95  A    between atoms: _227  and  _228
REMARK   96  A    between atoms: _233  and  _235
REMARK   97  A    between atoms: _235  and  _236
REMARK   98  A    between atoms: _235  and  _238
REMARK   99  A    between atoms: _238  and  _239
REMARK  100  A    between atoms: _245  and  _247
REMARK  101  A    between atoms: _247  and  _248
REMARK  102  A    between atoms: _247  and  _250
REMARK  103  A    between atoms: _250  and  _251
REMARK  104  A    between atoms: _254  and  _256
REMARK  105  A    between atoms: _256  and  _257
REMARK  106  A    between atoms: _256  and  _259
REMARK  107  A    between atoms: _259  and  _260
REMARK  108  A    between atoms: _265  and  _267
REMARK  109  A    between atoms: _267  and  _268
REMARK  110  A    between atoms: _267  and  _270
REMARK  111  A    between atoms: _270  and  _271
REMARK  112  A    between atoms: _276  and  _278
REMARK  113  A    between atoms: _278  and  _279
REMARK  114  A    between atoms: _281  and  _283
REMARK  115  A    between atoms: _283  and  _284
REMARK  116  A    between atoms: _283  and  _286
REMARK  117  A    between atoms: _286  and  _287
REMARK  118  A    between atoms: _290  and  _292
REMARK  119  A    between atoms: _292  and  _293
REMARK  120  A    between atoms: _292  and  _295
REMARK  121  A    between atoms: _295  and  _296
REMARK  122  A    between atoms: _299  and  _301
REMARK  123  A    between atoms: _301  and  _302
REMARK  124  A    between atoms: _304  and  _306
REMARK  125  A    between atoms: _306  and  _307
REMARK  126  A    between atoms: _306  and  _309
REMARK  127  A    between atoms: _309  and  _310
REMARK  128  A    between atoms: _313  and  _315
REMARK  129  A    between atoms: _315  and  _316
REMARK  130  A    between atoms: _319  and  _321
REMARK  131  A    between atoms: _321  and  _322
REMARK  132  A    between atoms: _321  and  _324
REMARK  133  A    between atoms: _324  and  _325
REMARK  134  A    between atoms: _328  and  _330
REMARK  135  A    between atoms: _330  and  _331
REMARK  136  A    between atoms: _330  and  _333
REMARK  137  A    between atoms: _333  and  _334
REMARK  138  A    between atoms: _337  and  _339
REMARK  139  A    between atoms: _339  and  _340
REMARK  140  A    between atoms: _339  and  _342
REMARK  141  A    between atoms: _342  and  _343
REMARK  142  A    between atoms: _349  and  _351
REMARK  143  A    between atoms: _351  and  _352
REMARK  144  A    between atoms: _351  and  _354
REMARK  145  A    between atoms: _354  and  _355
REMARK  146  A    between atoms: _365  and  _367
REMARK  147  A    between atoms: _367  and  _368
REMARK  148  A    between atoms: _367  and  _370
REMARK  149  A    between atoms: _370  and  _371
REMARK  150  A    between atoms: _374  and  _376
REMARK  151  A    between atoms: _376  and  _377
REMARK  152  A    between atoms: _380  and  _382
REMARK  153  A    between atoms: _382  and  _383
REMARK  154  A    between atoms: _382  and  _385
REMARK  155  A    between atoms: _385  and  _386
REMARK  156  A    between atoms: _389  and  _391
REMARK  157  A    between atoms: _391  and  _392
REMARK  158  A    between atoms: _391  and  _394
REMARK  159  A    between atoms: _394  and  _395
REMARK  160  A    between atoms: _398  and  _400
REMARK  161  A    between atoms: _400  and  _401
REMARK  162  A    between atoms: _403  and  _405
REMARK  163  A    between atoms: _405  and  _406
REMARK  164  A    between atoms: _405  and  _408
REMARK  165  A    between atoms: _408  and  _409
REMARK  166  A    between atoms: _412  and  _414
REMARK  167  A    between atoms: _414  and  _415
REMARK  168  A    between atoms: _414  and  _417
REMARK  169  A    between atoms: _417  and  _418
REMARK  170  A    between atoms: _421  and  _423
REMARK  171  A    between atoms: _423  and  _424
REMARK  172  A    between atoms: _423  and  _426
REMARK  173  A    between atoms: _426  and  _427
REMARK  174  A    between atoms: _430  and  _432
REMARK  175  A    between atoms: _432  and  _433
REMARK  176  A    between atoms: _432  and  _435
REMARK  177  A    between atoms: _435  and  _436
REMARK  178  A    between atoms: _439  and  _441
REMARK  179  A    between atoms: _441  and  _442
REMARK  180  A    between atoms: _441  and  _444
REMARK  181  A    between atoms: _444  and  _445
REMARK  182  A    between atoms: _448  and  _450
REMARK  183  A    between atoms: _450  and  _451
REMARK  184  A    between atoms: _454  and  _456
REMARK  185  A    between atoms: _456  and  _457
REMARK  186  A    between atoms: _459  and  _461
REMARK  187  A    between atoms: _461  and  _462
REMARK  188  A    between atoms: _464  and  _466
REMARK  189  A    between atoms: _466  and  _467
REMARK  190  A    between atoms: _466  and  _469
REMARK  191  A    between atoms: _469  and  _470
REMARK  192  A    between atoms: _475  and  _476
REMARK  193  A    between atoms: _479  and  _480
REMARK  194  A    between atoms: _485  and  _487
REMARK  195  A    between atoms: _487  and  _488
REMARK  196  A    between atoms: _487  and  _490
REMARK  197  A    between atoms: _490  and  _491
REMARK  198  A    between atoms: _493  and  _495
REMARK  199  A    between atoms: _495  and  _496
REMARK  200  A    between atoms: _495  and  _498
REMARK  201  A    between atoms: _498  and  _499
REMARK  202  A    between atoms: _502  and  _504
REMARK  203  A    between atoms: _504  and  _505
REMARK  204  A    between atoms: _507  and  _509
REMARK  205  A    between atoms: _509  and  _510
REMARK  206  A    between atoms: _509  and  _512
REMARK  207  A    between atoms: _512  and  _513
REMARK  208  A    between atoms: _513  and  _514
REMARK  209  A    between atoms: _519  and  _521
REMARK  210  A    between atoms: _521  and  _522
REMARK  211  A    between atoms: _521  and  _524
REMARK  212  A    between atoms: _524  and  _525
REMARK  213  A    between atoms: _527  and  _529
REMARK  214  A    between atoms: _529  and  _530
REMARK  215  A    between atoms: _529  and  _532
REMARK  216  A    between atoms: _532  and  _533
REMARK  217  A    between atoms: _538  and  _540
REMARK  218  A    between atoms: _540  and  _541
REMARK  219  A    between atoms: _540  and  _543
REMARK  220  A    between atoms: _543  and  _544
REMARK  221  A    between atoms: _546  and  _548
REMARK  222  A    between atoms: _548  and  _549
REMARK  223  A    between atoms: _548  and  _551
REMARK  224  A    between atoms: _551  and  _552
REMARK  225  A    between atoms: _555  and  _557
REMARK  226  A    between atoms: _557  and  _558
REMARK  227  A    between atoms: _557  and  _560
REMARK  228  A    between atoms: _560  and  _561
REMARK  229  A    between atoms: _567  and  _569
REMARK  230  A    between atoms: _569  and  _570
REMARK  231  A    between atoms: _569  and  _572
REMARK  232  A    between atoms: _572  and  _573
REMARK  233  A    between atoms: _575  and  _577
REMARK  234  A    between atoms: _577  and  _578
REMARK  235  A    between atoms: _577  and  _580
REMARK  236  A    between atoms: _580  and  _581
REMARK  237  A    between atoms: _584  and  _586
REMARK  238  A    between atoms: _586  and  _587
REMARK  239  A    between atoms: _586  and  _589
REMARK  240  A    between atoms: _589  and  _590
REMARK  241  A    between atoms: _596  and  _598
REMARK  242  A    between atoms: _598  and  _599
REMARK  243  A    between atoms: _601  and  _603
REMARK  244  A    between atoms: _603  and  _604
REMARK  245  A    between atoms: _603  and  _606
REMARK  246  A    between atoms: _606  and  _607
REMARK                            x       y       z     vdW  Elec       q    Type
REMARK                         _______ _______ _______ _____ _____    ______ ____
ROOT
ATOM      1  CA  THR A   1      36.015  13.601  26.102  0.00  0.00    +0.128 C 
ENDROOT
BRANCH   1   2
ATOM      2  N   THR A   1      35.585  14.517  24.992  0.00  0.00    -0.242 NA
ATOM      3  H   THR A   1      35.304  14.107  24.078  0.00  0.00    +0.141 HD
ENDBRANCH   1   2
BRANCH   1   4
ATOM      4  CB  THR A   1      35.238  12.257  26.160  0.00  0.00    +0.129 C 
ATOM      5  CG2 THR A   1      33.657  12.444  26.067  0.00  0.00    +0.033 C 
BRANCH   4   6
ATOM      6  OG1 THR A   1      35.695  11.403  25.086  0.00  0.00    -0.383 OA
ATOM      7  HG1 THR A   1      35.528  11.849  24.218  0.00  0.00    +0.210 HD
ENDBRANCH   4   6
ENDBRANCH   1   4
BRANCH   1   8
ATOM      8  C   THR A   1      37.525  13.273  26.123  0.00  0.00    +0.201 C 
ATOM      9  O   THR A   1      37.871  12.580  27.115  0.00  0.00    -0.219 OA
ENDBRANCH   1   8
TORSDOF 4
REMARK  Name = ../refined-set-2016/1ppl/1ppl_pocket.pdb
REMARK  246 active torsions:
REMARK  status: ('A' for Active; 'I' for Inactive)
REMARK    1  A    between atoms: _1  and  _3
REMARK    2  A    between atoms: _3  and  _4
REMARK    3  A    between atoms: _3  and  _6
REMARK    4  A    between atoms: _6  and  _7
REMARK    5  A    between atoms: _10  and  _12
REMARK    6  A    between atoms: _12  and  _13
REMARK    7  A    between atoms: _16  and  _18
REMARK    8  A    between atoms: _18  and  _19
REMARK    9  A    between atoms: _18  and  _21
REMARK   10  A    between atoms: _21  and  _22
REMARK   11  A    between atoms: _27  and  _29
REMARK   12  A    between atoms: _29  and  _30
REMARK   13  A    between atoms: _29  and  _32
REMARK   14  A    between atoms: _32  and  _33
REMARK   15  A    between atoms: _36  and  _38
REMARK   16  A    between atoms: _38  and  _39
REMARK   17  A    between atoms: _38  and  _41
REMARK   18  A    between atoms: _41  and  _42
REMARK   19  A    between atoms: _42  and  _43
REMARK   20  A    between atoms: _46  and  _48
REMARK   21  A    between atoms: _48  and  _49
REMARK   22  A    between atoms: _48  and  _51
REMARK   23  A    between atoms: _51  and  _52
REMARK   24  A    between atoms: _52  and  _53
REMARK   25  A    between atoms: _56  and  _58
REMARK   26  A    between atoms: _58  and  _59
REMARK   27  A    between atoms: _58  and  _61
REMARK   28  A    between atoms: _61  and  _62
REMARK   29  A    between atoms: _67  and  _68
REMARK   30  A    between atoms: _70  and  _72
REMARK   31  A    between atoms: _72  and  _73
REMARK   32  A    between atoms: _72  and  _75
REMARK   33  A    between atoms: _75  and  _76
REMARK   34  A    between atoms: _81  and  _83
REMARK   35  A    between atoms: _83  and  _84
REMARK   36  A    between atoms: _83  and  _86
REMARK   37  A    between atoms: _86  and  _87
REMARK   38  A    between atoms: _93  and  _95
REMARK   39  A    between atoms: _95  and  _96
REMARK   40  A    between atoms: _95  and  _98
REMARK   41  A    between atoms: _98  and  _99
REMARK   42  A    between atoms: _102  and  _104
REMARK   43  A    between atoms: _104  and  _105
REMARK   44  A    between atoms: _104  and  _107
REMARK   45  A    between atoms: _107  and  _108
REMARK   46  A    between atoms: _111  and  _113
REMARK   47  A    between atoms: _113  and  _114
REMARK   48  A    between atoms: _116  and  _118
REMARK   49  A    between atoms: _118  and  _119
REMARK   50  A    between atoms: _118  and  _121
REMARK   51  A    between atoms: _121  and  _122
REMARK   52  A    between atoms: _124  and  _126
REMARK   53  A    between atoms: _126  and  _127
REMARK   54  A    between atoms: _130  and  _132
REMARK   55  A    between atoms: _132  and  _133
REMARK   56  A    between atoms: _132  and  _135
REMARK   57  A    between atoms: _135  and  _136
REMARK   58  A    between atoms: _139  and  _141
REMARK   59  A    between atoms: _141  and  _142
REMARK   60  A    between atoms: _141  and  _144
REMARK   61  A    between atoms: _144  and  _145
REMARK   62  A    between atoms: _155  and  _157
REMARK   63  A    between atoms: _157  and  _158
REMARK   64  A    between atoms: _157  and  _160
REMARK   65  A    between atoms: _160  and  _161
REMARK   66  A    between atoms: _164  and  _166
REMARK   67  A    between atoms: _166  and  _167
REMARK   68  A    between atoms: _166  and  _169
REMARK   69  A    between atoms: _169  and  _170
REMARK   70  A    between atoms: _172  and  _174
REMARK   71  A    between atoms: _174  and  _175
REMARK   72  A    between atoms: _174  and  _177
REMARK   73  A    between atoms: _177  and  _178
REMARK   74  A    between atoms: _183  and  _184
REMARK   75  A    between atoms: _186  and  _188
REMARK   76  A    between atoms: _188  and  _189
REMARK   77  A    between atoms: _191  and  _193
REMARK   78  A    between atoms: _193  and  _194
REMARK   79  A    between atoms: _193  and  _196
REMARK   80  A    between atoms: _196  and  _197
REMARK   81  A    between atoms: _200  and  _202
REMARK   82  A    between atoms: _202  and  _203
REMARK   83  A    between atoms: _205  and  _207
REMARK   84  A    between atoms: _207  and  _208
REMARK   85  A    between atoms: _207  and  _210
REMARK   86  A    between atoms: _210  and  _211
REMARK   87  A    between atoms: _213  and  _215
REMARK   88  A    between atoms: _215  and  _216
REMARK   89  A    between atoms: _215  and  _218
REMARK   90  A    between atoms: _218  and  _219
REMARK   91  A    between atoms: _221  and  _223
REMARK   92  A    between atoms: _223  and  _224
REMARK   93  A    between atoms: _223  and  _226
REMARK   94  A    between atoms: _226  and  _227
REMARK   95  A    between atoms: _227  and  _228
REMARK   96  A    between atoms: _233  and  _235
REMARK   97  A    between atoms: _235  and  _236
REMARK   98  A    between atoms: _235  and  _238
REMARK   99  A    between atoms: _238  and  _239
REMARK  100  A    between atoms: _245  and  _247
REMARK  101  A    between atoms: _247  and  _248
REMARK  102  A    between atoms: _247  and  _250
REMARK  103  A    between atoms: _250  and  _251
REMARK  104  A    between atoms: _254  and  _256
REMARK  105  A    between atoms: _256  and  _257
REMARK  106  A    between atoms: _256  and  _259
REMARK  107  A    between atoms: _259  and  _260
REMARK  108  A    between atoms: _265  and  _267
REMARK  109  A    between atoms: _267  and  _268
REMARK  110  A    between atoms: _267  and  _270
REMARK  111  A    between atoms: _270  and  _271
REMARK  112  A    between atoms: _276  and  _278
REMARK  113  A    between atoms: _278  and  _279
REMARK  114  A    between atoms: _281  and  _283
REMARK  115  A    between atoms: _283  and  _284
REMARK  116  A    between atoms: _283  and  _286
REMARK  117  A    between atoms: _286  and  _287
REMARK  118  A    between atoms: _290  and  _292
REMARK  119  A    between atoms: _292  and  _293
REMARK  120  A    between atoms: _292  and  _295
REMARK  121  A    between atoms: _295  and  _296
REMARK  122  A    between atoms: _299  and  _301
REMARK  123  A    between atoms: _301  and  _302
REMARK  124  A    between atoms: _304  and  _306
REMARK  125  A    between atoms: _306  and  _307
REMARK  126  A    between atoms: _306  and  _309
REMARK  127  A    between atoms: _309  and  _310
REMARK  128  A    between atoms: _313  and  _315
REMARK  129  A    between atoms: _315  and  _316
REMARK  130  A    between atoms: _319  and  _321
REMARK  131  A    between atoms: _321  and  _322
REMARK  132  A    between atoms: _321  and  _324
REMARK  133  A    between atoms: _324  and  _325
REMARK  134  A    between atoms: _328  and  _330
REMARK  135  A    between atoms: _330  and  _331
REMARK  136  A    between atoms: _330  and  _333
REMARK  137  A    between atoms: _333  and  _334
REMARK  138  A    between atoms: _337  and  _339
REMARK  139  A    between atoms: _339  and  _340
REMARK  140  A    between atoms: _339  and  _342
REMARK  141  A    between atoms: _342  and  _343
REMARK  142  A    between atoms: _349  and  _351
REMARK  143  A    between atoms: _351  and  _352
REMARK  144  A    between atoms: _351  and  _354
REMARK  145  A    between atoms: _354  and  _355
REMARK  146  A    between atoms: _365  and  _367
REMARK  147  A    between atoms: _367  and  _368
REMARK  148  A    between atoms: _367  and  _370
REMARK  149  A    between atoms: _370  and  _371
REMARK  150  A    between atoms: _374  and  _376
REMARK  151  A    between atoms: _376  and  _377
REMARK  152  A    between atoms: _380  and  _382
REMARK  153  A    between atoms: _382  and  _383
REMARK  154  A    between atoms: _382  and  _385
REMARK  155  A    between atoms: _385  and  _386
REMARK  156  A    between atoms: _389  and  _391
REMARK  157  A    between atoms: _391  and  _392
REMARK  158  A    between atoms: _391  and  _394
REMARK  159  A    between atoms: _394  and  _395
REMARK  160  A    between atoms: _398  and  _400
REMARK  161  A    between atoms: _400  and  _401
REMARK  162  A    between atoms: _403  and  _405
REMARK  163  A    between atoms: _405  and  _406
REMARK  164  A    between atoms: _405  and  _408
REMARK  165  A    between atoms: _408  and  _409
REMARK  166  A    between atoms: _412  and  _414
REMARK  167  A    between atoms: _414  and  _415
REMARK  168  A    between atoms: _414  and  _417
REMARK  169  A    between atoms: _417  and  _418
REMARK  170  A    between atoms: _421  and  _423
REMARK  171  A    between atoms: _423  and  _424
REMARK  172  A    between atoms: _423  and  _426
REMARK  173  A    between atoms: _426  and  _427
REMARK  174  A    between atoms: _430  and  _432
REMARK  175  A    between atoms: _432  and  _433
REMARK  176  A    between atoms: _432  and  _435
REMARK  177  A    between atoms: _435  and  _436
REMARK  178  A    between atoms: _439  and  _441
REMARK  179  A    between atoms: _441  and  _442
REMARK  180  A    between atoms: _441  and  _444
REMARK  181  A    between atoms: _444  and  _445
REMARK  182  A    between atoms: _448  and  _450
REMARK  183  A    between atoms: _450  and  _451
REMARK  184  A    between atoms: _454  and  _456
REMARK  185  A    between atoms: _456  and  _457
REMARK  186  A    between atoms: _459  and  _461
REMARK  187  A    between atoms: _461  and  _462
REMARK  188  A    between atoms: _464  and  _466
REMARK  189  A    between atoms: _466  and  _467
REMARK  190  A    between atoms: _466  and  _469
REMARK  191  A    between atoms: _469  and  _470
REMARK  192  A    between atoms: _475  and  _476
REMARK  193  A    between atoms: _479  and  _480
REMARK  194  A    between atoms: _485  and  _487
REMARK  195  A    between atoms: _487  and  _488
REMARK  196  A    between atoms: _487  and  _490
REMARK  197  A    between atoms: _490  and  _491
REMARK  198  A    between atoms: _493  and  _495
REMARK  199  A    between atoms: _495  and  _496
REMARK  200  A    between atoms: _495  and  _498
REMARK  201  A    between atoms: _498  and  _499
REMARK  202  A    between atoms: _502  and  _504
REMARK  203  A    between atoms: _504  and  _505
REMARK  204  A    between atoms: _507  and  _509
REMARK  205  A    between atoms: _509  and  _510
REMARK  206  A    between atoms: _509  and  _512
REMARK  207  A    between atoms: _512  and  _513
REMARK  208  A    between atoms: _513  and  _514
REMARK  209  A    between atoms: _519  and  _521
REMARK  210  A    between atoms: _521  and  _522
REMARK  211  A    between atoms: _521  and  _524
REMARK  212  A    between atoms: _524  and  _525
REMARK  213  A    between atoms: _527  and  _529
REMARK  214  A    between atoms: _529  and  _530
REMARK  215  A    between atoms: _529  and  _532
REMARK  216  A    between atoms: _532  and  _533
REMARK  217  A    between atoms: _538  and  _540
REMARK  218  A    between atoms: _540  and  _541
REMARK  219  A    between atoms: _540  and  _543
REMARK  220  A    between atoms: _543  and  _544
REMARK  221  A    between atoms: _546  and  _548
REMARK  222  A    between atoms: _548  and  _549
REMARK  223  A    between atoms: _548  and  _551
REMARK  224  A    between atoms: _551  and  _552
REMARK  225  A    between atoms: _555  and  _557
REMARK  226  A    between atoms: _557  and  _558
REMARK  227  A    between atoms: _557  and  _560
REMARK  228  A    between atoms: _560  and  _561
REMARK  229  A    between atoms: _567  and  _569
REMARK  230  A    between atoms: _569  and  _570
REMARK  231  A    between atoms: _569  and  _572
REMARK  232  A    between atoms: _572  and  _573
REMARK  233  A    between atoms: _575  and  _577
REMARK  234  A    between atoms: _577  and  _578
REMARK  235  A    between atoms: _577  and  _580
REMARK  236  A    between atoms: _580  and  _581
REMARK  237  A    between atoms: _584  and  _586
REMARK  238  A    between atoms: _586  and  _587
REMARK  239  A    between atoms: _586  and  _589
REMARK  240  A    between atoms: _589  and  _590
REMARK  241  A    between atoms: _596  and  _598
REMARK  242  A    between atoms: _598  and  _599
REMARK  243  A    between atoms: _601  and  _603
REMARK  244  A    between atoms: _603  and  _604
REMARK  245  A    between atoms: _603  and  _606
REMARK  246  A    between atoms: _606  and  _607
REMARK                            x       y       z     vdW  Elec       q    Type
REMARK                         _______ _______ _______ _____ _____    ______ ____
ROOT
ATOM      1  C   PHE A   1      24.292  22.808  23.143  0.00  0.00    +0.239 C 
ATOM      2  O   PHE A   1      24.519  23.896  23.634  0.00  0.00    -0.274 OA
ATOM      3  N   TRP A   2      23.602  22.528  22.056  0.00  0.00    -0.298 N 
ATOM      4  H   TRP A   2      23.550  21.555  21.693  0.00  0.00    +0.150 HD
ENDROOT
BRANCH   1   5
ATOM      5  CA  PHE A   1      24.881  21.552  23.897  0.00  0.00    +0.149 C 
BRANCH   5   6
ATOM      6  N   PHE A   1      25.892  22.009  24.891  0.00  0.00    -0.238 NA
ATOM      7  H   PHE A   1      25.599  22.466  25.778  0.00  0.00    +0.142 HD
ENDBRANCH   5   6
BRANCH   5   8
ATOM      8  CB  PHE A   1      23.671  20.847  24.562  0.00  0.00    +0.053 C 
BRANCH   8   9
ATOM      9  CG  PHE A   1      24.082  19.516  25.218  0.00  0.00    -0.020 A 
ATOM     10  CD2 PHE A   1      23.933  19.398  26.583  0.00  0.00    -0.004 A 
ATOM     11  CE2 PHE A   1      24.286  18.165  27.235  0.00  0.00    -0.000 A 
ATOM     12  CZ  PHE A   1      24.834  17.156  26.494  0.00  0.00    -0.000 A 
ATOM     13  CE1 PHE A   1      24.949  17.259  25.138  0.00  0.00    -0.000 A 
ATOM     14  CD1 PHE A   1      24.629  18.481  24.489  0.00  0.00    -0.004 A 
ENDBRANCH   8   9
ENDBRANCH   5   8
ENDBRANCH   1   5
BRANCH   3  15
ATOM     15  CA  TRP A   2      22.909  23.623  21.371  0.00  0.00    +0.141 C 
BRANCH  15  16
ATOM     16  C   TRP A   2      21.561  23.727  22.074  0.00  0.00    +0.227 C 
ATOM     17  O   TRP A   2      20.565  23.153  21.501  0.00  0.00    -0.286 OA
ENDBRANCH  15  16
BRANCH  15  18
ATOM     18  CB  TRP A   2      22.797  23.212  19.868  0.00  0.00    +0.056 C 
BRANCH  18  19
ATOM     19  CG  TRP A   2      24.114  23.310  19.111  0.00  0.00    -0.002 A 
ATOM     20  CD1 TRP A   2      25.005  22.273  18.889  0.00  0.00    +0.068 A 
ATOM     21  NE1 TRP A   2      26.091  22.763  18.142  0.00  0.00    -0.352 N 
ATOM     22  CE2 TRP A   2      25.905  24.111  17.953  0.00  0.00    +0.056 A 
ATOM     23  CZ2 TRP A   2      26.688  25.010  17.213  0.00  0.00    +0.017 A 
ATOM     24  CH2 TRP A   2      26.294  26.303  17.105  0.00  0.00    +0.001 A 
ATOM     25  CZ3 TRP A   2      25.056  26.669  17.649  0.00  0.00    +0.000 A 
ATOM     26  CE3 TRP A   2      24.254  25.799  18.420  0.00  0.00    +0.001 A 
ATOM     27  HE1 TRP A   2      26.895  22.203  17.793  0.00  0.00    +0.166 HD
ATOM     28  CD2 TRP A   2      24.683  24.464  18.548  0.00  0.00    +0.013 A 
ENDBRANCH  18  19
ENDBRANCH  15  18
ENDBRANCH   3  15
TORSDOF 8
REMARK  Name = ../refined-set-2016/1ppl/1ppl_pocket.pdb
REMARK  246 active torsions:
REMARK  status: ('A' for Active; 'I' for Inactive)
REMARK    1  A    between atoms: _1  and  _3
REMARK    2  A    between atoms: _3  and  _4
REMARK    3  A    between atoms: _3  and  _6
REMARK    4  A    between atoms: _6  and  _7
REMARK    5  A    between atoms: _10  and  _12
REMARK    6  A    between atoms: _12  and  _13
REMARK    7  A    between atoms: _16  and  _18
REMARK    8  A    between atoms: _18  and  _19
REMARK    9  A    between atoms: _18  and  _21
REMARK   10  A    between atoms: _21  and  _22
REMARK   11  A    between atoms: _27  and  _29
REMARK   12  A    between atoms: _29  and  _30
REMARK   13  A    between atoms: _29  and  _32
REMARK   14  A    between atoms: _32  and  _33
REMARK   15  A    between atoms: _36  and  _38
REMARK   16  A    between atoms: _38  and  _39
REMARK   17  A    between atoms: _38  and  _41
REMARK   18  A    between atoms: _41  and  _42
REMARK   19  A    between atoms: _42  and  _43
REMARK   20  A    between atoms: _46  and  _48
REMARK   21  A    between atoms: _48  and  _49
REMARK   22  A    between atoms: _48  and  _51
REMARK   23  A    between atoms: _51  and  _52
REMARK   24  A    between atoms: _52  and  _53
REMARK   25  A    between atoms: _56  and  _58
REMARK   26  A    between atoms: _58  and  _59
REMARK   27  A    between atoms: _58  and  _61
REMARK   28  A    between atoms: _61  and  _62
REMARK   29  A    between atoms: _67  and  _68
REMARK   30  A    between atoms: _70  and  _72
REMARK   31  A    between atoms: _72  and  _73
REMARK   32  A    between atoms: _72  and  _75
REMARK   33  A    between atoms: _75  and  _76
REMARK   34  A    between atoms: _81  and  _83
REMARK   35  A    between atoms: _83  and  _84
REMARK   36  A    between atoms: _83  and  _86
REMARK   37  A    between atoms: _86  and  _87
REMARK   38  A    between atoms: _93  and  _95
REMARK   39  A    between atoms: _95  and  _96
REMARK   40  A    between atoms: _95  and  _98
REMARK   41  A    between atoms: _98  and  _99
REMARK   42  A    between atoms: _102  and  _104
REMARK   43  A    between atoms: _104  and  _105
REMARK   44  A    between atoms: _104  and  _107
REMARK   45  A    between atoms: _107  and  _108
REMARK   46  A    between atoms: _111  and  _113
REMARK   47  A    between atoms: _113  and  _114
REMARK   48  A    between atoms: _116  and  _118
REMARK   49  A    between atoms: _118  and  _119
REMARK   50  A    between atoms: _118  and  _121
REMARK   51  A    between atoms: _121  and  _122
REMARK   52  A    between atoms: _124  and  _126
REMARK   53  A    between atoms: _126  and  _127
REMARK   54  A    between atoms: _130  and  _132
REMARK   55  A    between atoms: _132  and  _133
REMARK   56  A    between atoms: _132  and  _135
REMARK   57  A    between atoms: _135  and  _136
REMARK   58  A    between atoms: _139  and  _141
REMARK   59  A    between atoms: _141  and  _142
REMARK   60  A    between atoms: _141  and  _144
REMARK   61  A    between atoms: _144  and  _145
REMARK   62  A    between atoms: _155  and  _157
REMARK   63  A    between atoms: _157  and  _158
REMARK   64  A    between atoms: _157  and  _160
REMARK   65  A    between atoms: _160  and  _161
REMARK   66  A    between atoms: _164  and  _166
REMARK   67  A    between atoms: _166  and  _167
REMARK   68  A    between atoms: _166  and  _169
REMARK   69  A    between atoms: _169  and  _170
REMARK   70  A    between atoms: _172  and  _174
REMARK   71  A    between atoms: _174  and  _175
REMARK   72  A    between atoms: _174  and  _177
REMARK   73  A    between atoms: _177  and  _178
REMARK   74  A    between atoms: _183  and  _184
REMARK   75  A    between atoms: _186  and  _188
REMARK   76  A    between atoms: _188  and  _189
REMARK   77  A    between atoms: _191  and  _193
REMARK   78  A    between atoms: _193  and  _194
REMARK   79  A    between atoms: _193  and  _196
REMARK   80  A    between atoms: _196  and  _197
REMARK   81  A    between atoms: _200  and  _202
REMARK   82  A    between atoms: _202  and  _203
REMARK   83  A    between atoms: _205  and  _207
REMARK   84  A    between atoms: _207  and  _208
REMARK   85  A    between atoms: _207  and  _210
REMARK   86  A    between atoms: _210  and  _211
REMARK   87  A    between atoms: _213  and  _215
REMARK   88  A    between atoms: _215  and  _216
REMARK   89  A    between atoms: _215  and  _218
REMARK   90  A    between atoms: _218  and  _219
REMARK   91  A    between atoms: _221  and  _223
REMARK   92  A    between atoms: _223  and  _224
REMARK   93  A    between atoms: _223  and  _226
REMARK   94  A    between atoms: _226  and  _227
REMARK   95  A    between atoms: _227  and  _228
REMARK   96  A    between atoms: _233  and  _235
REMARK   97  A    between atoms: _235  and  _236
REMARK   98  A    between atoms: _235  and  _238
REMARK   99  A    between atoms: _238  and  _239
REMARK  100  A    between atoms: _245  and  _247
REMARK  101  A    between atoms: _247  and  _248
REMARK  102  A    between atoms: _247  and  _250
REMARK  103  A    between atoms: _250  and  _251
REMARK  104  A    between atoms: _254  and  _256
REMARK  105  A    between atoms: _256  and  _257
REMARK  106  A    between atoms: _256  and  _259
REMARK  107  A    between atoms: _259  and  _260
REMARK  108  A    between atoms: _265  and  _267
REMARK  109  A    between atoms: _267  and  _268
REMARK  110  A    between atoms: _267  and  _270
REMARK  111  A    between atoms: _270  and  _271
REMARK  112  A    between atoms: _276  and  _278
REMARK  113  A    between atoms: _278  and  _279
REMARK  114  A    between atoms: _281  and  _283
REMARK  115  A    between atoms: _283  and  _284
REMARK  116  A    between atoms: _283  and  _286
REMARK  117  A    between atoms: _286  and  _287
REMARK  118  A    between atoms: _290  and  _292
REMARK  119  A    between atoms: _292  and  _293
REMARK  120  A    between atoms: _292  and  _295
REMARK  121  A    between atoms: _295  and  _296
REMARK  122  A    between atoms: _299  and  _301
REMARK  123  A    between atoms: _301  and  _302
REMARK  124  A    between atoms: _304  and  _306
REMARK  125  A    between atoms: _306  and  _307
REMARK  126  A    between atoms: _306  and  _309
REMARK  127  A    between atoms: _309  and  _310
REMARK  128  A    between atoms: _313  and  _315
REMARK  129  A    between atoms: _315  and  _316
REMARK  130  A    between atoms: _319  and  _321
REMARK  131  A    between atoms: _321  and  _322
REMARK  132  A    between atoms: _321  and  _324
REMARK  133  A    between atoms: _324  and  _325
REMARK  134  A    between atoms: _328  and  _330
REMARK  135  A    between atoms: _330  and  _331
REMARK  136  A    between atoms: _330  and  _333
REMARK  137  A    between atoms: _333  and  _334
REMARK  138  A    between atoms: _337  and  _339
REMARK  139  A    between atoms: _339  and  _340
REMARK  140  A    between atoms: _339  and  _342
REMARK  141  A    between atoms: _342  and  _343
REMARK  142  A    between atoms: _349  and  _351
REMARK  143  A    between atoms: _351  and  _352
REMARK  144  A    between atoms: _351  and  _354
REMARK  145  A    between atoms: _354  and  _355
REMARK  146  A    between atoms: _365  and  _367
REMARK  147  A    between atoms: _367  and  _368
REMARK  148  A    between atoms: _367  and  _370
REMARK  149  A    between atoms: _370  and  _371
REMARK  150  A    between atoms: _374  and  _376
REMARK  151  A    between atoms: _376  and  _377
REMARK  152  A    between atoms: _380  and  _382
REMARK  153  A    between atoms: _382  and  _383
REMARK  154  A    between atoms: _382  and  _385
REMARK  155  A    between atoms: _385  and  _386
REMARK  156  A    between atoms: _389  and  _391
REMARK  157  A    between atoms: _391  and  _392
REMARK  158  A    between atoms: _391  and  _394
REMARK  159  A    between atoms: _394  and  _395
REMARK  160  A    between atoms: _398  and  _400
REMARK  161  A    between atoms: _400  and  _401
REMARK  162  A    between atoms: _403  and  _405
REMARK  163  A    between atoms: _405  and  _406
REMARK  164  A    between atoms: _405  and  _408
REMARK  165  A    between atoms: _408  and  _409
REMARK  166  A    between atoms: _412  and  _414
REMARK  167  A    between atoms: _414  and  _415
REMARK  168  A    between atoms: _414  and  _417
REMARK  169  A    between atoms: _417  and  _418
REMARK  170  A    between atoms: _421  and  _423
REMARK  171  A    between atoms: _423  and  _424
REMARK  172  A    between atoms: _423  and  _426
REMARK  173  A    between atoms: _426  and  _427
REMARK  174  A    between atoms: _430  and  _432
REMARK  175  A    between atoms: _432  and  _433
REMARK  176  A    between atoms: _432  and  _435
REMARK  177  A    between atoms: _435  and  _436
REMARK  178  A    between atoms: _439  and  _441
REMARK  179  A    between atoms: _441  and  _442
REMARK  180  A    between atoms: _441  and  _444
REMARK  181  A    between atoms: _444  and  _445
REMARK  182  A    between atoms: _448  and  _450
REMARK  183  A    between atoms: _450  and  _451
REMARK  184  A    between atoms: _454  and  _456
REMARK  185  A    between atoms: _456  and  _457
REMARK  186  A    between atoms: _459  and  _461
REMARK  187  A    between atoms: _461  and  _462
REMARK  188  A    between atoms: _464  and  _466
REMARK  189  A    between atoms: _466  and  _467
REMARK  190  A    between atoms: _466  and  _469
REMARK  191  A    between atoms: _469  and  _470
REMARK  192  A    between atoms: _475  and  _476
REMARK  193  A    between atoms: _479  and  _480
REMARK  194  A    between atoms: _485  and  _487
REMARK  195  A    between atoms: _487  and  _488
REMARK  196  A    between atoms: _487  and  _490
REMARK  197  A    between atoms: _490  and  _491
REMARK  198  A    between atoms: _493  and  _495
REMARK  199  A    between atoms: _495  and  _496
REMARK  200  A    between atoms: _495  and  _498
REMARK  201  A    between atoms: _498  and  _499
REMARK  202  A    between atoms: _502  and  _504
REMARK  203  A    between atoms: _504  and  _505
REMARK  204  A    between atoms: _507  and  _509
REMARK  205  A    between atoms: _509  and  _510
REMARK  206  A    between atoms: _509  and  _512
REMARK  207  A    between atoms: _512  and  _513
REMARK  208  A    between atoms: _513  and  _514
REMARK  209  A    between atoms: _519  and  _521
REMARK  210  A    between atoms: _521  and  _522
REMARK  211  A    between atoms: _521  and  _524
REMARK  212  A    between atoms: _524  and  _525
REMARK  213  A    between atoms: _527  and  _529
REMARK  214  A    between atoms: _529  and  _530
REMARK  215  A    between atoms: _529  and  _532
REMARK  216  A    between atoms: _532  and  _533
REMARK  217  A    between atoms: _538  and  _540
REMARK  218  A    between atoms: _540  and  _541
REMARK  219  A    between atoms: _540  and  _543
REMARK  220  A    between atoms: _543  and  _544
REMARK  221  A    between atoms: _546  and  _548
REMARK  222  A    between atoms: _548  and  _549
REMARK  223  A    between atoms: _548  and  _551
REMARK  224  A    between atoms: _551  and  _552
REMARK  225  A    between atoms: _555  and  _557
REMARK  226  A    between atoms: _557  and  _558
REMARK  227  A    between atoms: _557  and  _560
REMARK  228  A    between atoms: _560  and  _561
REMARK  229  A    between atoms: _567  and  _569
REMARK  230  A    between atoms: _569  and  _570
REMARK  231  A    between atoms: _569  and  _572
REMARK  232  A    between atoms: _572  and  _573
REMARK  233  A    between atoms: _575  and  _577
REMARK  234  A    between atoms: _577  and  _578
REMARK  235  A    between atoms: _577  and  _580
REMARK  236  A    between atoms: _580  and  _581
REMARK  237  A    between atoms: _584  and  _586
REMARK  238  A    between atoms: _586  and  _587
REMARK  239  A    between atoms: _586  and  _589
REMARK  240  A    between atoms: _589  and  _590
REMARK  241  A    between atoms: _596  and  _598
REMARK  242  A    between atoms: _598  and  _599
REMARK  243  A    between atoms: _601  and  _603
REMARK  244  A    between atoms: _603  and  _604
REMARK  245  A    between atoms: _603  and  _606
REMARK  246  A    between atoms: _606  and  _607
REMARK                            x       y       z     vdW  Elec       q    Type
REMARK                         _______ _______ _______ _____ _____    ______ ____
ROOT
ATOM      1  CA  THR A   6      18.669  11.113  18.604  0.00  0.00    +0.176 C 
ENDROOT
BRANCH   1   2
ATOM      2  C   THR A   6      17.514  10.966  17.545  0.00  0.00    +0.243 C 
ATOM      3  N   THR A   7      17.012   9.769  17.459  0.00  0.00    -0.295 N 
ATOM      4  H   THR A   7      17.333   9.005  18.087  0.00  0.00    +0.150 HD
ATOM      5  O   THR A   6      17.222  11.974  16.910  0.00  0.00    -0.273 OA
BRANCH   3   6
ATOM      6  CA  THR A   7      15.955   9.529  16.424  0.00  0.00    +0.176 C 
BRANCH   6   7
ATOM      7  C   THR A   7      14.653  10.245  16.768  0.00  0.00    +0.243 C 
ATOM      8  N   LEU A   8      14.226  10.223  18.006  0.00  0.00    -0.297 N 
ATOM      9  H   LEU A   8      14.837   9.855  18.763  0.00  0.00    +0.150 HD
ATOM     10  O   THR A   7      14.060  10.710  15.795  0.00  0.00    -0.273 OA
BRANCH   8  11
ATOM     11  CA  LEU A   8      12.838  10.736  18.331  0.00  0.00    +0.149 C 
BRANCH  11  12
ATOM     12  C   LEU A   8      12.845  12.096  18.978  0.00  0.00    +0.241 C 
ATOM     13  N   LEU A   9      11.631  12.534  19.300  0.00  0.00    -0.297 N 
ATOM     14  H   LEU A   9      10.814  11.948  19.034  0.00  0.00    +0.150 HD
ATOM     15  O   LEU A   8      13.852  12.710  19.175  0.00  0.00    -0.273 OA
BRANCH  13  16
ATOM     16  CA  LEU A   9      11.375  13.796  20.009  0.00  0.00    +0.149 C 
BRANCH  16  17
ATOM     17  C   LEU A   9      11.099  13.344  21.411  0.00  0.00    +0.240 C 
ATOM     18  N   LEU A  10      12.093  13.664  22.306  0.00  0.00    -0.302 N 
ATOM     19  H   LEU A  10      12.932  14.209  22.020  0.00  0.00    +0.150 HD
ATOM     20  O   LEU A   9      10.076  12.733  21.733  0.00  0.00    -0.273 OA
BRANCH  18  21
ATOM     21  CA  LEU A  10      11.908  13.194  23.694  0.00  0.00    +0.105 C 
BRANCH  21  22
ATOM     22  C   LEU A  10      11.470  14.335  24.607  0.00  0.00    +0.201 C 
ATOM     23  O   LEU A  10      12.292  15.319  24.794  0.00  0.00    -0.219 OA
ENDBRANCH  21  22
BRANCH  21  24
ATOM     24  CB  LEU A  10      13.189  12.465  24.246  0.00  0.00    +0.022 C 
BRANCH  24  25
ATOM     25  CG  LEU A  10      13.772  11.385  23.313  0.00  0.00    +0.002 C 
ATOM     26  CD2 LEU A  10      15.124  10.858  23.874  0.00  0.00    +0.000 C 
ATOM     27  CD1 LEU A  10      12.713  10.309  23.074  0.00  0.00    +0.000 C 
ENDBRANCH  24  25
ENDBRANCH  21  24
ENDBRANCH  18  21
ENDBRANCH  16  17
BRANCH  16  28
ATOM     28  CB  LEU A   9      10.240  14.588  19.339  0.00  0.00    +0.029 C 
BRANCH  28  29
ATOM     29  CG  LEU A   9       9.750  15.835  20.024  0.00  0.00    +0.002 C 
ATOM     30  CD2 LEU A   9      10.882  16.838  20.270  0.00  0.00    +0.000 C 
ATOM     31  CD1 LEU A   9       8.617  16.505  19.104  0.00  0.00    +0.000 C 
ENDBRANCH  28  29
ENDBRANCH  16  28
ENDBRANCH  13  16
ENDBRANCH  11  12
BRANCH  11  32
ATOM     32  CB  LEU A   8      12.227   9.635  19.190  0.00  0.00    +0.029 C 
BRANCH  32  33
ATOM     33  CG  LEU A   8      12.135   8.223  18.555  0.00  0.00    +0.002 C 
ATOM     34  CD2 LEU A   8      11.453   7.384  19.613  0.00  0.00    +0.000 C 
ATOM     35  CD1 LEU A   8      11.389   8.227  17.234  0.00  0.00    +0.000 C 
ENDBRANCH  32  33
ENDBRANCH  11  32
ENDBRANCH   8  11
ENDBRANCH   6   7
BRANCH   6  36
ATOM     36  CB  THR A   7      15.653   7.969  16.442  0.00  0.00    +0.137 C 
ATOM     37  CG2 THR A   7      14.637   7.636  15.324  0.00  0.00    +0.034 C 
BRANCH  36  38
ATOM     38  OG1 THR A   7      16.943   7.246  16.344  0.00  0.00    -0.382 OA
ATOM     39  HG1 THR A   7      17.396   7.495  15.500  0.00  0.00    +0.210 HD
ENDBRANCH  36  38
ENDBRANCH   6  36
ENDBRANCH   3   6
ENDBRANCH   1   2
BRANCH   1  42
ATOM     40  C   GLY A   5      20.924  11.258  17.624  0.00  0.00    +0.243 C 
ATOM     41  O   GLY A   5      21.145  10.095  17.994  0.00  0.00    -0.273 OA
ATOM     42  N   THR A   6      19.755  11.858  17.900  0.00  0.00    -0.295 N 
ATOM     43  H   THR A   6      19.605  12.849  17.622  0.00  0.00    +0.150 HD
BRANCH  40  44
ATOM     44  CA  GLY A   5      21.995  12.052  16.902  0.00  0.00    +0.176 C 
BRANCH  44  46
ATOM     45  C   THR A   4      20.939  13.720  15.448  0.00  0.00    +0.243 C 
ATOM     46  N   GLY A   5      21.612  13.376  16.527  0.00  0.00    -0.295 N 
ATOM     47  H   GLY A   5      21.892  14.144  17.169  0.00  0.00    +0.150 HD
ATOM     48  O   THR A   4      20.569  12.906  14.651  0.00  0.00    -0.273 OA
BRANCH  45  49
ATOM     49  CA  THR A   4      20.708  15.233  15.197  0.00  0.00    +0.176 C 
BRANCH  49  52
ATOM     50  C   ASP A   3      19.973  15.918  17.410  0.00  0.00    +0.241 C 
ATOM     51  O   ASP A   3      19.063  15.063  17.381  0.00  0.00    -0.273 OA
ATOM     52  N   THR A   4      20.791  16.040  16.405  0.00  0.00    -0.295 N 
ATOM     53  H   THR A   4      21.545  16.753  16.469  0.00  0.00    +0.150 HD
BRANCH  50  54
ATOM     54  CA  ASP A   3      20.201  16.850  18.612  0.00  0.00    +0.160 C 
BRANCH  54  57
ATOM     55  C   ALA A   2      19.913  19.289  18.819  0.00  0.00    +0.241 C 
ATOM     56  O   ALA A   2      21.119  19.472  18.865  0.00  0.00    -0.273 OA
ATOM     57  N   ASP A   3      19.370  18.086  18.635  0.00  0.00    -0.297 N 
ATOM     58  H   ASP A   3      18.341  18.008  18.504  0.00  0.00    +0.150 HD
BRANCH  55  59
ATOM     59  CA  ALA A   2      18.871  20.404  19.056  0.00  0.00    +0.149 C 
ATOM     60  CB  ALA A   2      19.137  21.633  18.187  0.00  0.00    +0.031 C 
BRANCH  59  63
ATOM     61  C   ILE A   1      18.393  20.144  21.445  0.00  0.00    +0.238 C 
ATOM     62  O   ILE A   1      17.619  19.170  21.246  0.00  0.00    -0.274 OA
ATOM     63  N   ALA A   2      19.061  20.751  20.473  0.00  0.00    -0.297 N 
ATOM     64  H   ALA A   2      19.742  21.497  20.721  0.00  0.00    +0.150 HD
BRANCH  61  65
ATOM     65  CA  ILE A   1      18.725  20.574  22.828  0.00  0.00    +0.145 C 
BRANCH  65  66
ATOM     66  N   ILE A   1      17.547  20.561  23.723  0.00  0.00    -0.238 NA
ATOM     67  H   ILE A   1      17.104  19.655  23.976  0.00  0.00    +0.142 HD
ENDBRANCH  65  66
BRANCH  65  68
ATOM     68  CB  ILE A   1      19.857  19.734  23.453  0.00  0.00    +0.025 C 
ATOM     69  CG2 ILE A   1      20.324  20.284  24.811  0.00  0.00    +0.002 C 
BRANCH  68  70
ATOM     70  CG1 ILE A   1      19.428  18.222  23.560  0.00  0.00    +0.002 C 
ATOM     71  CD1 ILE A   1      20.777  17.416  23.751  0.00  0.00    +0.000 C 
ENDBRANCH  68  70
ENDBRANCH  65  68
ENDBRANCH  61  65
ENDBRANCH  59  63
ENDBRANCH  55  59
ENDBRANCH  54  57
BRANCH  54  72
ATOM     72  CB  ASP A   3      19.851  16.231  20.015  0.00  0.00    +0.143 C 
BRANCH  72  73
ATOM     73  CG  ASP A   3      20.699  15.006  20.226  0.00  0.00    +0.367 C 
ATOM     74  OD2 ASP A   3      20.539  14.399  21.265  0.00  0.00    -0.246 OA
ATOM     75  OD1 ASP A   3      21.569  14.591  19.476  0.00  0.00    -0.246 OA
ENDBRANCH  72  73
ENDBRANCH  54  72
ENDBRANCH  50  54
ENDBRANCH  49  52
BRANCH  49  76
ATOM     76  CB  THR A   4      21.636  15.715  13.996  0.00  0.00    +0.137 C 
ATOM     77  CG2 THR A   4      21.231  17.103  13.478  0.00  0.00    +0.034 C 
BRANCH  76  78
ATOM     78  OG1 THR A   4      22.991  15.678  14.589  0.00  0.00    -0.382 OA
ATOM     79  HG1 THR A   4      23.196  14.755  14.883  0.00  0.00    +0.210 HD
ENDBRANCH  76  78
ENDBRANCH  49  76
ENDBRANCH  45  49
ENDBRANCH  44  46
ENDBRANCH  40  44
ENDBRANCH   1  42
BRANCH   1  80
ATOM     80  CB  THR A   6      18.133  11.846  19.849  0.00  0.00    +0.137 C 
ATOM     81  CG2 THR A   6      16.855  11.289  20.473  0.00  0.00    +0.034 C 
BRANCH  80  82
ATOM     82  OG1 THR A   6      19.193  11.694  20.821  0.00  0.00    -0.382 OA
ATOM     83  HG1 THR A   6      20.022  12.106  20.471  0.00  0.00    +0.210 HD
ENDBRANCH  80  82
ENDBRANCH   1  80
TORSDOF 36
REMARK  Name = ../refined-set-2016/1ppl/1ppl_pocket.pdb
REMARK  246 active torsions:
REMARK  status: ('A' for Active; 'I' for Inactive)
REMARK    1  A    between atoms: _1  and  _3
REMARK    2  A    between atoms: _3  and  _4
REMARK    3  A    between atoms: _3  and  _6
REMARK    4  A    between atoms: _6  and  _7
REMARK    5  A    between atoms: _10  and  _12
REMARK    6  A    between atoms: _12  and  _13
REMARK    7  A    between atoms: _16  and  _18
REMARK    8  A    between atoms: _18  and  _19
REMARK    9  A    between atoms: _18  and  _21
REMARK   10  A    between atoms: _21  and  _22
REMARK   11  A    between atoms: _27  and  _29
REMARK   12  A    between atoms: _29  and  _30
REMARK   13  A    between atoms: _29  and  _32
REMARK   14  A    between atoms: _32  and  _33
REMARK   15  A    between atoms: _36  and  _38
REMARK   16  A    between atoms: _38  and  _39
REMARK   17  A    between atoms: _38  and  _41
REMARK   18  A    between atoms: _41  and  _42
REMARK   19  A    between atoms: _42  and  _43
REMARK   20  A    between atoms: _46  and  _48
REMARK   21  A    between atoms: _48  and  _49
REMARK   22  A    between atoms: _48  and  _51
REMARK   23  A    between atoms: _51  and  _52
REMARK   24  A    between atoms: _52  and  _53
REMARK   25  A    between atoms: _56  and  _58
REMARK   26  A    between atoms: _58  and  _59
REMARK   27  A    between atoms: _58  and  _61
REMARK   28  A    between atoms: _61  and  _62
REMARK   29  A    between atoms: _67  and  _68
REMARK   30  A    between atoms: _70  and  _72
REMARK   31  A    between atoms: _72  and  _73
REMARK   32  A    between atoms: _72  and  _75
REMARK   33  A    between atoms: _75  and  _76
REMARK   34  A    between atoms: _81  and  _83
REMARK   35  A    between atoms: _83  and  _84
REMARK   36  A    between atoms: _83  and  _86
REMARK   37  A    between atoms: _86  and  _87
REMARK   38  A    between atoms: _93  and  _95
REMARK   39  A    between atoms: _95  and  _96
REMARK   40  A    between atoms: _95  and  _98
REMARK   41  A    between atoms: _98  and  _99
REMARK   42  A    between atoms: _102  and  _104
REMARK   43  A    between atoms: _104  and  _105
REMARK   44  A    between atoms: _104  and  _107
REMARK   45  A    between atoms: _107  and  _108
REMARK   46  A    between atoms: _111  and  _113
REMARK   47  A    between atoms: _113  and  _114
REMARK   48  A    between atoms: _116  and  _118
REMARK   49  A    between atoms: _118  and  _119
REMARK   50  A    between atoms: _118  and  _121
REMARK   51  A    between atoms: _121  and  _122
REMARK   52  A    between atoms: _124  and  _126
REMARK   53  A    between atoms: _126  and  _127
REMARK   54  A    between atoms: _130  and  _132
REMARK   55  A    between atoms: _132  and  _133
REMARK   56  A    between atoms: _132  and  _135
REMARK   57  A    between atoms: _135  and  _136
REMARK   58  A    between atoms: _139  and  _141
REMARK   59  A    between atoms: _141  and  _142
REMARK   60  A    between atoms: _141  and  _144
REMARK   61  A    between atoms: _144  and  _145
REMARK   62  A    between atoms: _155  and  _157
REMARK   63  A    between atoms: _157  and  _158
REMARK   64  A    between atoms: _157  and  _160
REMARK   65  A    between atoms: _160  and  _161
REMARK   66  A    between atoms: _164  and  _166
REMARK   67  A    between atoms: _166  and  _167
REMARK   68  A    between atoms: _166  and  _169
REMARK   69  A    between atoms: _169  and  _170
REMARK   70  A    between atoms: _172  and  _174
REMARK   71  A    between atoms: _174  and  _175
REMARK   72  A    between atoms: _174  and  _177
REMARK   73  A    between atoms: _177  and  _178
REMARK   74  A    between atoms: _183  and  _184
REMARK   75  A    between atoms: _186  and  _188
REMARK   76  A    between atoms: _188  and  _189
REMARK   77  A    between atoms: _191  and  _193
REMARK   78  A    between atoms: _193  and  _194
REMARK   79  A    between atoms: _193  and  _196
REMARK   80  A    between atoms: _196  and  _197
REMARK   81  A    between atoms: _200  and  _202
REMARK   82  A    between atoms: _202  and  _203
REMARK   83  A    between atoms: _205  and  _207
REMARK   84  A    between atoms: _207  and  _208
REMARK   85  A    between atoms: _207  and  _210
REMARK   86  A    between atoms: _210  and  _211
REMARK   87  A    between atoms: _213  and  _215
REMARK   88  A    between atoms: _215  and  _216
REMARK   89  A    between atoms: _215  and  _218
REMARK   90  A    between atoms: _218  and  _219
REMARK   91  A    between atoms: _221  and  _223
REMARK   92  A    between atoms: _223  and  _224
REMARK   93  A    between atoms: _223  and  _226
REMARK   94  A    between atoms: _226  and  _227
REMARK   95  A    between atoms: _227  and  _228
REMARK   96  A    between atoms: _233  and  _235
REMARK   97  A    between atoms: _235  and  _236
REMARK   98  A    between atoms: _235  and  _238
REMARK   99  A    between atoms: _238  and  _239
REMARK  100  A    between atoms: _245  and  _247
REMARK  101  A    between atoms: _247  and  _248
REMARK  102  A    between atoms: _247  and  _250
REMARK  103  A    between atoms: _250  and  _251
REMARK  104  A    between atoms: _254  and  _256
REMARK  105  A    between atoms: _256  and  _257
REMARK  106  A    between atoms: _256  and  _259
REMARK  107  A    between atoms: _259  and  _260
REMARK  108  A    between atoms: _265  and  _267
REMARK  109  A    between atoms: _267  and  _268
REMARK  110  A    between atoms: _267  and  _270
REMARK  111  A    between atoms: _270  and  _271
REMARK  112  A    between atoms: _276  and  _278
REMARK  113  A    between atoms: _278  and  _279
REMARK  114  A    between atoms: _281  and  _283
REMARK  115  A    between atoms: _283  and  _284
REMARK  116  A    between atoms: _283  and  _286
REMARK  117  A    between atoms: _286  and  _287
REMARK  118  A    between atoms: _290  and  _292
REMARK  119  A    between atoms: _292  and  _293
REMARK  120  A    between atoms: _292  and  _295
REMARK  121  A    between atoms: _295  and  _296
REMARK  122  A    between atoms: _299  and  _301
REMARK  123  A    between atoms: _301  and  _302
REMARK  124  A    between atoms: _304  and  _306
REMARK  125  A    between atoms: _306  and  _307
REMARK  126  A    between atoms: _306  and  _309
REMARK  127  A    between atoms: _309  and  _310
REMARK  128  A    between atoms: _313  and  _315
REMARK  129  A    between atoms: _315  and  _316
REMARK  130  A    between atoms: _319  and  _321
REMARK  131  A    between atoms: _321  and  _322
REMARK  132  A    between atoms: _321  and  _324
REMARK  133  A    between atoms: _324  and  _325
REMARK  134  A    between atoms: _328  and  _330
REMARK  135  A    between atoms: _330  and  _331
REMARK  136  A    between atoms: _330  and  _333
REMARK  137  A    between atoms: _333  and  _334
REMARK  138  A    between atoms: _337  and  _339
REMARK  139  A    between atoms: _339  and  _340
REMARK  140  A    between atoms: _339  and  _342
REMARK  141  A    between atoms: _342  and  _343
REMARK  142  A    between atoms: _349  and  _351
REMARK  143  A    between atoms: _351  and  _352
REMARK  144  A    between atoms: _351  and  _354
REMARK  145  A    between atoms: _354  and  _355
REMARK  146  A    between atoms: _365  and  _367
REMARK  147  A    between atoms: _367  and  _368
REMARK  148  A    between atoms: _367  and  _370
REMARK  149  A    between atoms: _370  and  _371
REMARK  150  A    between atoms: _374  and  _376
REMARK  151  A    between atoms: _376  and  _377
REMARK  152  A    between atoms: _380  and  _382
REMARK  153  A    between atoms: _382  and  _383
REMARK  154  A    between atoms: _382  and  _385
REMARK  155  A    between atoms: _385  and  _386
REMARK  156  A    between atoms: _389  and  _391
REMARK  157  A    between atoms: _391  and  _392
REMARK  158  A    between atoms: _391  and  _394
REMARK  159  A    between atoms: _394  and  _395
REMARK  160  A    between atoms: _398  and  _400
REMARK  161  A    between atoms: _400  and  _401
REMARK  162  A    between atoms: _403  and  _405
REMARK  163  A    between atoms: _405  and  _406
REMARK  164  A    between atoms: _405  and  _408
REMARK  165  A    between atoms: _408  and  _409
REMARK  166  A    between atoms: _412  and  _414
REMARK  167  A    between atoms: _414  and  _415
REMARK  168  A    between atoms: _414  and  _417
REMARK  169  A    between atoms: _417  and  _418
REMARK  170  A    between atoms: _421  and  _423
REMARK  171  A    between atoms: _423  and  _424
REMARK  172  A    between atoms: _423  and  _426
REMARK  173  A    between atoms: _426  and  _427
REMARK  174  A    between atoms: _430  and  _432
REMARK  175  A    between atoms: _432  and  _433
REMARK  176  A    between atoms: _432  and  _435
REMARK  177  A    between atoms: _435  and  _436
REMARK  178  A    between atoms: _439  and  _441
REMARK  179  A    between atoms: _441  and  _442
REMARK  180  A    between atoms: _441  and  _444
REMARK  181  A    between atoms: _444  and  _445
REMARK  182  A    between atoms: _448  and  _450
REMARK  183  A    between atoms: _450  and  _451
REMARK  184  A    between atoms: _454  and  _456
REMARK  185  A    between atoms: _456  and  _457
REMARK  186  A    between atoms: _459  and  _461
REMARK  187  A    between atoms: _461  and  _462
REMARK  188  A    between atoms: _464  and  _466
REMARK  189  A    between atoms: _466  and  _467
REMARK  190  A    between atoms: _466  and  _469
REMARK  191  A    between atoms: _469  and  _470
REMARK  192  A    between atoms: _475  and  _476
REMARK  193  A    between atoms: _479  and  _480
REMARK  194  A    between atoms: _485  and  _487
REMARK  195  A    between atoms: _487  and  _488
REMARK  196  A    between atoms: _487  and  _490
REMARK  197  A    between atoms: _490  and  _491
REMARK  198  A    between atoms: _493  and  _495
REMARK  199  A    between atoms: _495  and  _496
REMARK  200  A    between atoms: _495  and  _498
REMARK  201  A    between atoms: _498  and  _499
REMARK  202  A    between atoms: _502  and  _504
REMARK  203  A    between atoms: _504  and  _505
REMARK  204  A    between atoms: _507  and  _509
REMARK  205  A    between atoms: _509  and  _510
REMARK  206  A    between atoms: _509  and  _512
REMARK  207  A    between atoms: _512  and  _513
REMARK  208  A    between atoms: _513  and  _514
REMARK  209  A    between atoms: _519  and  _521
REMARK  210  A    between atoms: _521  and  _522
REMARK  211  A    between atoms: _521  and  _524
REMARK  212  A    between atoms: _524  and  _525
REMARK  213  A    between atoms: _527  and  _529
REMARK  214  A    between atoms: _529  and  _530
REMARK  215  A    between atoms: _529  and  _532
REMARK  216  A    between atoms: _532  and  _533
REMARK  217  A    between atoms: _538  and  _540
REMARK  218  A    between atoms: _540  and  _541
REMARK  219  A    between atoms: _540  and  _543
REMARK  220  A    between atoms: _543  and  _544
REMARK  221  A    between atoms: _546  and  _548
REMARK  222  A    between atoms: _548  and  _549
REMARK  223  A    between atoms: _548  and  _551
REMARK  224  A    between atoms: _551  and  _552
REMARK  225  A    between atoms: _555  and  _557
REMARK  226  A    between atoms: _557  and  _558
REMARK  227  A    between atoms: _557  and  _560
REMARK  228  A    between atoms: _560  and  _561
REMARK  229  A    between atoms: _567  and  _569
REMARK  230  A    between atoms: _569  and  _570
REMARK  231  A    between atoms: _569  and  _572
REMARK  232  A    between atoms: _572  and  _573
REMARK  233  A    between atoms: _575  and  _577
REMARK  234  A    between atoms: _577  and  _578
REMARK  235  A    between atoms: _577  and  _580
REMARK  236  A    between atoms: _580  and  _581
REMARK  237  A    between atoms: _584  and  _586
REMARK  238  A    between atoms: _586  and  _587
REMARK  239  A    between atoms: _586  and  _589
REMARK  240  A    between atoms: _589  and  _590
REMARK  241  A    between atoms: _596  and  _598
REMARK  242  A    between atoms: _598  and  _599
REMARK  243  A    between atoms: _601  and  _603
REMARK  244  A    between atoms: _603  and  _604
REMARK  245  A    between atoms: _603  and  _606
REMARK  246  A    between atoms: _606  and  _607
REMARK                            x       y       z     vdW  Elec       q    Type
REMARK                         _______ _______ _______ _____ _____    ______ ____
ROOT
ATOM      1  C   ALA A   1       9.677  -0.415  21.244  0.00  0.00    +0.238 C 
ATOM      2  N   GLY A   2       9.695  -0.090  22.545  0.00  0.00    -0.296 N 
ATOM      3  H   GLY A   2       9.169  -0.642  23.252  0.00  0.00    +0.150 HD
ATOM      4  O   ALA A   1      10.323   0.234  20.410  0.00  0.00    -0.274 OA
ENDROOT
BRANCH   1   5
ATOM      5  CA  ALA A   1       8.834  -1.545  20.726  0.00  0.00    +0.145 C 
ATOM      6  CB  ALA A   1       7.421  -1.153  20.248  0.00  0.00    +0.028 C 
BRANCH   5   7
ATOM      7  N   ALA A   1       8.644  -2.578  21.785  0.00  0.00    -0.238 NA
ATOM      8  H   ALA A   1       7.807  -2.540  22.400  0.00  0.00    +0.142 HD
ENDBRANCH   5   7
ENDBRANCH   1   5
BRANCH   2   9
ATOM      9  CA  GLY A   2      10.499   1.092  22.925  0.00  0.00    +0.176 C 
BRANCH   9  10
ATOM     10  C   GLY A   2       9.645   2.252  23.380  0.00  0.00    +0.243 C 
ATOM     11  O   GLY A   2      10.222   3.331  23.633  0.00  0.00    -0.273 OA
ATOM     12  N   GLY A   3       8.347   2.097  23.548  0.00  0.00    -0.296 N 
ATOM     13  H   GLY A   3       7.883   1.193  23.326  0.00  0.00    +0.150 HD
BRANCH  12  14
ATOM     14  CA  GLY A   3       7.554   3.271  24.072  0.00  0.00    +0.163 C 
BRANCH  14  15
ATOM     15  C   GLY A   3       6.091   3.118  23.622  0.00  0.00    +0.229 C 
ATOM     16  O   GLY A   3       5.605   1.985  23.392  0.00  0.00    -0.286 OA
ENDBRANCH  14  15
ENDBRANCH  12  14
ENDBRANCH   9  10
ENDBRANCH   2   9
TORSDOF 6
REMARK  Name = ../refined-set-2016/1ppl/1ppl_pocket.pdb
REMARK  246 active torsions:
REMARK  status: ('A' for Active; 'I' for Inactive)
REMARK    1  A    between atoms: _1  and  _3
REMARK    2  A    between atoms: _3  and  _4
REMARK    3  A    between atoms: _3  and  _6
REMARK    4  A    between atoms: _6  and  _7
REMARK    5  A    between atoms: _10  and  _12
REMARK    6  A    between atoms: _12  and  _13
REMARK    7  A    between atoms: _16  and  _18
REMARK    8  A    between atoms: _18  and  _19
REMARK    9  A    between atoms: _18  and  _21
REMARK   10  A    between atoms: _21  and  _22
REMARK   11  A    between atoms: _27  and  _29
REMARK   12  A    between atoms: _29  and  _30
REMARK   13  A    between atoms: _29  and  _32
REMARK   14  A    between atoms: _32  and  _33
REMARK   15  A    between atoms: _36  and  _38
REMARK   16  A    between atoms: _38  and  _39
REMARK   17  A    between atoms: _38  and  _41
REMARK   18  A    between atoms: _41  and  _42
REMARK   19  A    between atoms: _42  and  _43
REMARK   20  A    between atoms: _46  and  _48
REMARK   21  A    between atoms: _48  and  _49
REMARK   22  A    between atoms: _48  and  _51
REMARK   23  A    between atoms: _51  and  _52
REMARK   24  A    between atoms: _52  and  _53
REMARK   25  A    between atoms: _56  and  _58
REMARK   26  A    between atoms: _58  and  _59
REMARK   27  A    between atoms: _58  and  _61
REMARK   28  A    between atoms: _61  and  _62
REMARK   29  A    between atoms: _67  and  _68
REMARK   30  A    between atoms: _70  and  _72
REMARK   31  A    between atoms: _72  and  _73
REMARK   32  A    between atoms: _72  and  _75
REMARK   33  A    between atoms: _75  and  _76
REMARK   34  A    between atoms: _81  and  _83
REMARK   35  A    between atoms: _83  and  _84
REMARK   36  A    between atoms: _83  and  _86
REMARK   37  A    between atoms: _86  and  _87
REMARK   38  A    between atoms: _93  and  _95
REMARK   39  A    between atoms: _95  and  _96
REMARK   40  A    between atoms: _95  and  _98
REMARK   41  A    between atoms: _98  and  _99
REMARK   42  A    between atoms: _102  and  _104
REMARK   43  A    between atoms: _104  and  _105
REMARK   44  A    between atoms: _104  and  _107
REMARK   45  A    between atoms: _107  and  _108
REMARK   46  A    between atoms: _111  and  _113
REMARK   47  A    between atoms: _113  and  _114
REMARK   48  A    between atoms: _116  and  _118
REMARK   49  A    between atoms: _118  and  _119
REMARK   50  A    between atoms: _118  and  _121
REMARK   51  A    between atoms: _121  and  _122
REMARK   52  A    between atoms: _124  and  _126
REMARK   53  A    between atoms: _126  and  _127
REMARK   54  A    between atoms: _130  and  _132
REMARK   55  A    between atoms: _132  and  _133
REMARK   56  A    between atoms: _132  and  _135
REMARK   57  A    between atoms: _135  and  _136
REMARK   58  A    between atoms: _139  and  _141
REMARK   59  A    between atoms: _141  and  _142
REMARK   60  A    between atoms: _141  and  _144
REMARK   61  A    between atoms: _144  and  _145
REMARK   62  A    between atoms: _155  and  _157
REMARK   63  A    between atoms: _157  and  _158
REMARK   64  A    between atoms: _157  and  _160
REMARK   65  A    between atoms: _160  and  _161
REMARK   66  A    between atoms: _164  and  _166
REMARK   67  A    between atoms: _166  and  _167
REMARK   68  A    between atoms: _166  and  _169
REMARK   69  A    between atoms: _169  and  _170
REMARK   70  A    between atoms: _172  and  _174
REMARK   71  A    between atoms: _174  and  _175
REMARK   72  A    between atoms: _174  and  _177
REMARK   73  A    between atoms: _177  and  _178
REMARK   74  A    between atoms: _183  and  _184
REMARK   75  A    between atoms: _186  and  _188
REMARK   76  A    between atoms: _188  and  _189
REMARK   77  A    between atoms: _191  and  _193
REMARK   78  A    between atoms: _193  and  _194
REMARK   79  A    between atoms: _193  and  _196
REMARK   80  A    between atoms: _196  and  _197
REMARK   81  A    between atoms: _200  and  _202
REMARK   82  A    between atoms: _202  and  _203
REMARK   83  A    between atoms: _205  and  _207
REMARK   84  A    between atoms: _207  and  _208
REMARK   85  A    between atoms: _207  and  _210
REMARK   86  A    between atoms: _210  and  _211
REMARK   87  A    between atoms: _213  and  _215
REMARK   88  A    between atoms: _215  and  _216
REMARK   89  A    between atoms: _215  and  _218
REMARK   90  A    between atoms: _218  and  _219
REMARK   91  A    between atoms: _221  and  _223
REMARK   92  A    between atoms: _223  and  _224
REMARK   93  A    between atoms: _223  and  _226
REMARK   94  A    between atoms: _226  and  _227
REMARK   95  A    between atoms: _227  and  _228
REMARK   96  A    between atoms: _233  and  _235
REMARK   97  A    between atoms: _235  and  _236
REMARK   98  A    between atoms: _235  and  _238
REMARK   99  A    between atoms: _238  and  _239
REMARK  100  A    between atoms: _245  and  _247
REMARK  101  A    between atoms: _247  and  _248
REMARK  102  A    between atoms: _247  and  _250
REMARK  103  A    between atoms: _250  and  _251
REMARK  104  A    between atoms: _254  and  _256
REMARK  105  A    between atoms: _256  and  _257
REMARK  106  A    between atoms: _256  and  _259
REMARK  107  A    between atoms: _259  and  _260
REMARK  108  A    between atoms: _265  and  _267
REMARK  109  A    between atoms: _267  and  _268
REMARK  110  A    between atoms: _267  and  _270
REMARK  111  A    between atoms: _270  and  _271
REMARK  112  A    between atoms: _276  and  _278
REMARK  113  A    between atoms: _278  and  _279
REMARK  114  A    between atoms: _281  and  _283
REMARK  115  A    between atoms: _283  and  _284
REMARK  116  A    between atoms: _283  and  _286
REMARK  117  A    between atoms: _286  and  _287
REMARK  118  A    between atoms: _290  and  _292
REMARK  119  A    between atoms: _292  and  _293
REMARK  120  A    between atoms: _292  and  _295
REMARK  121  A    between atoms: _295  and  _296
REMARK  122  A    between atoms: _299  and  _301
REMARK  123  A    between atoms: _301  and  _302
REMARK  124  A    between atoms: _304  and  _306
REMARK  125  A    between atoms: _306  and  _307
REMARK  126  A    between atoms: _306  and  _309
REMARK  127  A    between atoms: _309  and  _310
REMARK  128  A    between atoms: _313  and  _315
REMARK  129  A    between atoms: _315  and  _316
REMARK  130  A    between atoms: _319  and  _321
REMARK  131  A    between atoms: _321  and  _322
REMARK  132  A    between atoms: _321  and  _324
REMARK  133  A    between atoms: _324  and  _325
REMARK  134  A    between atoms: _328  and  _330
REMARK  135  A    between atoms: _330  and  _331
REMARK  136  A    between atoms: _330  and  _333
REMARK  137  A    between atoms: _333  and  _334
REMARK  138  A    between atoms: _337  and  _339
REMARK  139  A    between atoms: _339  and  _340
REMARK  140  A    between atoms: _339  and  _342
REMARK  141  A    between atoms: _342  and  _343
REMARK  142  A    between atoms: _349  and  _351
REMARK  143  A    between atoms: _351  and  _352
REMARK  144  A    between atoms: _351  and  _354
REMARK  145  A    between atoms: _354  and  _355
REMARK  146  A    between atoms: _365  and  _367
REMARK  147  A    between atoms: _367  and  _368
REMARK  148  A    between atoms: _367  and  _370
REMARK  149  A    between atoms: _370  and  _371
REMARK  150  A    between atoms: _374  and  _376
REMARK  151  A    between atoms: _376  and  _377
REMARK  152  A    between atoms: _380  and  _382
REMARK  153  A    between atoms: _382  and  _383
REMARK  154  A    between atoms: _382  and  _385
REMARK  155  A    between atoms: _385  and  _386
REMARK  156  A    between atoms: _389  and  _391
REMARK  157  A    between atoms: _391  and  _392
REMARK  158  A    between atoms: _391  and  _394
REMARK  159  A    between atoms: _394  and  _395
REMARK  160  A    between atoms: _398  and  _400
REMARK  161  A    between atoms: _400  and  _401
REMARK  162  A    between atoms: _403  and  _405
REMARK  163  A    between atoms: _405  and  _406
REMARK  164  A    between atoms: _405  and  _408
REMARK  165  A    between atoms: _408  and  _409
REMARK  166  A    between atoms: _412  and  _414
REMARK  167  A    between atoms: _414  and  _415
REMARK  168  A    between atoms: _414  and  _417
REMARK  169  A    between atoms: _417  and  _418
REMARK  170  A    between atoms: _421  and  _423
REMARK  171  A    between atoms: _423  and  _424
REMARK  172  A    between atoms: _423  and  _426
REMARK  173  A    between atoms: _426  and  _427
REMARK  174  A    between atoms: _430  and  _432
REMARK  175  A    between atoms: _432  and  _433
REMARK  176  A    between atoms: _432  and  _435
REMARK  177  A    between atoms: _435  and  _436
REMARK  178  A    between atoms: _439  and  _441
REMARK  179  A    between atoms: _441  and  _442
REMARK  180  A    between atoms: _441  and  _444
REMARK  181  A    between atoms: _444  and  _445
REMARK  182  A    between atoms: _448  and  _450
REMARK  183  A    between atoms: _450  and  _451
REMARK  184  A    between atoms: _454  and  _456
REMARK  185  A    between atoms: _456  and  _457
REMARK  186  A    between atoms: _459  and  _461
REMARK  187  A    between atoms: _461  and  _462
REMARK  188  A    between atoms: _464  and  _466
REMARK  189  A    between atoms: _466  and  _467
REMARK  190  A    between atoms: _466  and  _469
REMARK  191  A    between atoms: _469  and  _470
REMARK  192  A    between atoms: _475  and  _476
REMARK  193  A    between atoms: _479  and  _480
REMARK  194  A    between atoms: _485  and  _487
REMARK  195  A    between atoms: _487  and  _488
REMARK  196  A    between atoms: _487  and  _490
REMARK  197  A    between atoms: _490  and  _491
REMARK  198  A    between atoms: _493  and  _495
REMARK  199  A    between atoms: _495  and  _496
REMARK  200  A    between atoms: _495  and  _498
REMARK  201  A    between atoms: _498  and  _499
REMARK  202  A    between atoms: _502  and  _504
REMARK  203  A    between atoms: _504  and  _505
REMARK  204  A    between atoms: _507  and  _509
REMARK  205  A    between atoms: _509  and  _510
REMARK  206  A    between atoms: _509  and  _512
REMARK  207  A    between atoms: _512  and  _513
REMARK  208  A    between atoms: _513  and  _514
REMARK  209  A    between atoms: _519  and  _521
REMARK  210  A    between atoms: _521  and  _522
REMARK  211  A    between atoms: _521  and  _524
REMARK  212  A    between atoms: _524  and  _525
REMARK  213  A    between atoms: _527  and  _529
REMARK  214  A    between atoms: _529  and  _530
REMARK  215  A    between atoms: _529  and  _532
REMARK  216  A    between atoms: _532  and  _533
REMARK  217  A    between atoms: _538  and  _540
REMARK  218  A    between atoms: _540  and  _541
REMARK  219  A    between atoms: _540  and  _543
REMARK  220  A    between atoms: _543  and  _544
REMARK  221  A    between atoms: _546  and  _548
REMARK  222  A    between atoms: _548  and  _549
REMARK  223  A    between atoms: _548  and  _551
REMARK  224  A    between atoms: _551  and  _552
REMARK  225  A    between atoms: _555  and  _557
REMARK  226  A    between atoms: _557  and  _558
REMARK  227  A    between atoms: _557  and  _560
REMARK  228  A    between atoms: _560  and  _561
REMARK  229  A    between atoms: _567  and  _569
REMARK  230  A    between atoms: _569  and  _570
REMARK  231  A    between atoms: _569  and  _572
REMARK  232  A    between atoms: _572  and  _573
REMARK  233  A    between atoms: _575  and  _577
REMARK  234  A    between atoms: _577  and  _578
REMARK  235  A    between atoms: _577  and  _580
REMARK  236  A    between atoms: _580  and  _581
REMARK  237  A    between atoms: _584  and  _586
REMARK  238  A    between atoms: _586  and  _587
REMARK  239  A    between atoms: _586  and  _589
REMARK  240  A    between atoms: _589  and  _590
REMARK  241  A    between atoms: _596  and  _598
REMARK  242  A    between atoms: _598  and  _599
REMARK  243  A    between atoms: _601  and  _603
REMARK  244  A    between atoms: _603  and  _604
REMARK  245  A    between atoms: _603  and  _606
REMARK  246  A    between atoms: _606  and  _607
REMARK                            x       y       z     vdW  Elec       q    Type
REMARK                         _______ _______ _______ _____ _____    ______ ____
ROOT
ATOM      1  CG  TYR A   1       9.861   6.036  14.151  0.00  0.00    -0.020 A 
ATOM      2  CD2 TYR A   1      10.097   4.705  14.417  0.00  0.00    -0.001 A 
ATOM      3  CE2 TYR A   1      11.330   4.077  14.210  0.00  0.00    +0.036 A 
ATOM      4  CZ  TYR A   1      12.371   4.903  13.795  0.00  0.00    +0.134 A 
ATOM      5  CE1 TYR A   1      12.178   6.239  13.534  0.00  0.00    +0.036 A 
ATOM      6  CD1 TYR A   1      10.912   6.825  13.719  0.00  0.00    -0.001 A 
ENDROOT
BRANCH   4   7
ATOM      7  OH  TYR A   1      13.627   4.356  13.587  0.00  0.00    -0.506 OA
ATOM      8  HH  TYR A   1      13.570   3.659  12.886  0.00  0.00    +0.292 HD
ENDBRANCH   4   7
BRANCH   1   9
ATOM      9  CB  TYR A   1       8.491   6.611  14.397  0.00  0.00    +0.051 C 
BRANCH   9  10
ATOM     10  CA  TYR A   1       7.748   6.906  13.099  0.00  0.00    +0.137 C 
BRANCH  10  11
ATOM     11  N   TYR A   1       6.319   7.279  13.458  0.00  0.00    -0.239 NA
ATOM     12  H   TYR A   1       5.961   7.184  14.430  0.00  0.00    +0.142 HD
ENDBRANCH  10  11
BRANCH  10  13
ATOM     13  C   TYR A   1       7.859   5.798  12.087  0.00  0.00    +0.224 C 
ATOM     14  O   TYR A   1       8.623   5.812  11.098  0.00  0.00    -0.287 OA
ENDBRANCH  10  13
ENDBRANCH   9  10
ENDBRANCH   1   9
TORSDOF 5
REMARK  Name = ../refined-set-2016/1ppl/1ppl_pocket.pdb
REMARK  246 active torsions:
REMARK  status: ('A' for Active; 'I' for Inactive)
REMARK    1  A    between atoms: _1  and  _3
REMARK    2  A    between atoms: _3  and  _4
REMARK    3  A    between atoms: _3  and  _6
REMARK    4  A    between atoms: _6  and  _7
REMARK    5  A    between atoms: _10  and  _12
REMARK    6  A    between atoms: _12  and  _13
REMARK    7  A    between atoms: _16  and  _18
REMARK    8  A    between atoms: _18  and  _19
REMARK    9  A    between atoms: _18  and  _21
REMARK   10  A    between atoms: _21  and  _22
REMARK   11  A    between atoms: _27  and  _29
REMARK   12  A    between atoms: _29  and  _30
REMARK   13  A    between atoms: _29  and  _32
REMARK   14  A    between atoms: _32  and  _33
REMARK   15  A    between atoms: _36  and  _38
REMARK   16  A    between atoms: _38  and  _39
REMARK   17  A    between atoms: _38  and  _41
REMARK   18  A    between atoms: _41  and  _42
REMARK   19  A    between atoms: _42  and  _43
REMARK   20  A    between atoms: _46  and  _48
REMARK   21  A    between atoms: _48  and  _49
REMARK   22  A    between atoms: _48  and  _51
REMARK   23  A    between atoms: _51  and  _52
REMARK   24  A    between atoms: _52  and  _53
REMARK   25  A    between atoms: _56  and  _58
REMARK   26  A    between atoms: _58  and  _59
REMARK   27  A    between atoms: _58  and  _61
REMARK   28  A    between atoms: _61  and  _62
REMARK   29  A    between atoms: _67  and  _68
REMARK   30  A    between atoms: _70  and  _72
REMARK   31  A    between atoms: _72  and  _73
REMARK   32  A    between atoms: _72  and  _75
REMARK   33  A    between atoms: _75  and  _76
REMARK   34  A    between atoms: _81  and  _83
REMARK   35  A    between atoms: _83  and  _84
REMARK   36  A    between atoms: _83  and  _86
REMARK   37  A    between atoms: _86  and  _87
REMARK   38  A    between atoms: _93  and  _95
REMARK   39  A    between atoms: _95  and  _96
REMARK   40  A    between atoms: _95  and  _98
REMARK   41  A    between atoms: _98  and  _99
REMARK   42  A    between atoms: _102  and  _104
REMARK   43  A    between atoms: _104  and  _105
REMARK   44  A    between atoms: _104  and  _107
REMARK   45  A    between atoms: _107  and  _108
REMARK   46  A    between atoms: _111  and  _113
REMARK   47  A    between atoms: _113  and  _114
REMARK   48  A    between atoms: _116  and  _118
REMARK   49  A    between atoms: _118  and  _119
REMARK   50  A    between atoms: _118  and  _121
REMARK   51  A    between atoms: _121  and  _122
REMARK   52  A    between atoms: _124  and  _126
REMARK   53  A    between atoms: _126  and  _127
REMARK   54  A    between atoms: _130  and  _132
REMARK   55  A    between atoms: _132  and  _133
REMARK   56  A    between atoms: _132  and  _135
REMARK   57  A    between atoms: _135  and  _136
REMARK   58  A    between atoms: _139  and  _141
REMARK   59  A    between atoms: _141  and  _142
REMARK   60  A    between atoms: _141  and  _144
REMARK   61  A    between atoms: _144  and  _145
REMARK   62  A    between atoms: _155  and  _157
REMARK   63  A    between atoms: _157  and  _158
REMARK   64  A    between atoms: _157  and  _160
REMARK   65  A    between atoms: _160  and  _161
REMARK   66  A    between atoms: _164  and  _166
REMARK   67  A    between atoms: _166  and  _167
REMARK   68  A    between atoms: _166  and  _169
REMARK   69  A    between atoms: _169  and  _170
REMARK   70  A    between atoms: _172  and  _174
REMARK   71  A    between atoms: _174  and  _175
REMARK   72  A    between atoms: _174  and  _177
REMARK   73  A    between atoms: _177  and  _178
REMARK   74  A    between atoms: _183  and  _184
REMARK   75  A    between atoms: _186  and  _188
REMARK   76  A    between atoms: _188  and  _189
REMARK   77  A    between atoms: _191  and  _193
REMARK   78  A    between atoms: _193  and  _194
REMARK   79  A    between atoms: _193  and  _196
REMARK   80  A    between atoms: _196  and  _197
REMARK   81  A    between atoms: _200  and  _202
REMARK   82  A    between atoms: _202  and  _203
REMARK   83  A    between atoms: _205  and  _207
REMARK   84  A    between atoms: _207  and  _208
REMARK   85  A    between atoms: _207  and  _210
REMARK   86  A    between atoms: _210  and  _211
REMARK   87  A    between atoms: _213  and  _215
REMARK   88  A    between atoms: _215  and  _216
REMARK   89  A    between atoms: _215  and  _218
REMARK   90  A    between atoms: _218  and  _219
REMARK   91  A    between atoms: _221  and  _223
REMARK   92  A    between atoms: _223  and  _224
REMARK   93  A    between atoms: _223  and  _226
REMARK   94  A    between atoms: _226  and  _227
REMARK   95  A    between atoms: _227  and  _228
REMARK   96  A    between atoms: _233  and  _235
REMARK   97  A    between atoms: _235  and  _236
REMARK   98  A    between atoms: _235  and  _238
REMARK   99  A    between atoms: _238  and  _239
REMARK  100  A    between atoms: _245  and  _247
REMARK  101  A    between atoms: _247  and  _248
REMARK  102  A    between atoms: _247  and  _250
REMARK  103  A    between atoms: _250  and  _251
REMARK  104  A    between atoms: _254  and  _256
REMARK  105  A    between atoms: _256  and  _257
REMARK  106  A    between atoms: _256  and  _259
REMARK  107  A    between atoms: _259  and  _260
REMARK  108  A    between atoms: _265  and  _267
REMARK  109  A    between atoms: _267  and  _268
REMARK  110  A    between atoms: _267  and  _270
REMARK  111  A    between atoms: _270  and  _271
REMARK  112  A    between atoms: _276  and  _278
REMARK  113  A    between atoms: _278  and  _279
REMARK  114  A    between atoms: _281  and  _283
REMARK  115  A    between atoms: _283  and  _284
REMARK  116  A    between atoms: _283  and  _286
REMARK  117  A    between atoms: _286  and  _287
REMARK  118  A    between atoms: _290  and  _292
REMARK  119  A    between atoms: _292  and  _293
REMARK  120  A    between atoms: _292  and  _295
REMARK  121  A    between atoms: _295  and  _296
REMARK  122  A    between atoms: _299  and  _301
REMARK  123  A    between atoms: _301  and  _302
REMARK  124  A    between atoms: _304  and  _306
REMARK  125  A    between atoms: _306  and  _307
REMARK  126  A    between atoms: _306  and  _309
REMARK  127  A    between atoms: _309  and  _310
REMARK  128  A    between atoms: _313  and  _315
REMARK  129  A    between atoms: _315  and  _316
REMARK  130  A    between atoms: _319  and  _321
REMARK  131  A    between atoms: _321  and  _322
REMARK  132  A    between atoms: _321  and  _324
REMARK  133  A    between atoms: _324  and  _325
REMARK  134  A    between atoms: _328  and  _330
REMARK  135  A    between atoms: _330  and  _331
REMARK  136  A    between atoms: _330  and  _333
REMARK  137  A    between atoms: _333  and  _334
REMARK  138  A    between atoms: _337  and  _339
REMARK  139  A    between atoms: _339  and  _340
REMARK  140  A    between atoms: _339  and  _342
REMARK  141  A    between atoms: _342  and  _343
REMARK  142  A    between atoms: _349  and  _351
REMARK  143  A    between atoms: _351  and  _352
REMARK  144  A    between atoms: _351  and  _354
REMARK  145  A    between atoms: _354  and  _355
REMARK  146  A    between atoms: _365  and  _367
REMARK  147  A    between atoms: _367  and  _368
REMARK  148  A    between atoms: _367  and  _370
REMARK  149  A    between atoms: _370  and  _371
REMARK  150  A    between atoms: _374  and  _376
REMARK  151  A    between atoms: _376  and  _377
REMARK  152  A    between atoms: _380  and  _382
REMARK  153  A    between atoms: _382  and  _383
REMARK  154  A    between atoms: _382  and  _385
REMARK  155  A    between atoms: _385  and  _386
REMARK  156  A    between atoms: _389  and  _391
REMARK  157  A    between atoms: _391  and  _392
REMARK  158  A    between atoms: _391  and  _394
REMARK  159  A    between atoms: _394  and  _395
REMARK  160  A    between atoms: _398  and  _400
REMARK  161  A    between atoms: _400  and  _401
REMARK  162  A    between atoms: _403  and  _405
REMARK  163  A    between atoms: _405  and  _406
REMARK  164  A    between atoms: _405  and  _408
REMARK  165  A    between atoms: _408  and  _409
REMARK  166  A    between atoms: _412  and  _414
REMARK  167  A    between atoms: _414  and  _415
REMARK  168  A    between atoms: _414  and  _417
REMARK  169  A    between atoms: _417  and  _418
REMARK  170  A    between atoms: _421  and  _423
REMARK  171  A    between atoms: _423  and  _424
REMARK  172  A    between atoms: _423  and  _426
REMARK  173  A    between atoms: _426  and  _427
REMARK  174  A    between atoms: _430  and  _432
REMARK  175  A    between atoms: _432  and  _433
REMARK  176  A    between atoms: _432  and  _435
REMARK  177  A    between atoms: _435  and  _436
REMARK  178  A    between atoms: _439  and  _441
REMARK  179  A    between atoms: _441  and  _442
REMARK  180  A    between atoms: _441  and  _444
REMARK  181  A    between atoms: _444  and  _445
REMARK  182  A    between atoms: _448  and  _450
REMARK  183  A    between atoms: _450  and  _451
REMARK  184  A    between atoms: _454  and  _456
REMARK  185  A    between atoms: _456  and  _457
REMARK  186  A    between atoms: _459  and  _461
REMARK  187  A    between atoms: _461  and  _462
REMARK  188  A    between atoms: _464  and  _466
REMARK  189  A    between atoms: _466  and  _467
REMARK  190  A    between atoms: _466  and  _469
REMARK  191  A    between atoms: _469  and  _470
REMARK  192  A    between atoms: _475  and  _476
REMARK  193  A    between atoms: _479  and  _480
REMARK  194  A    between atoms: _485  and  _487
REMARK  195  A    between atoms: _487  and  _488
REMARK  196  A    between atoms: _487  and  _490
REMARK  197  A    between atoms: _490  and  _491
REMARK  198  A    between atoms: _493  and  _495
REMARK  199  A    between atoms: _495  and  _496
REMARK  200  A    between atoms: _495  and  _498
REMARK  201  A    between atoms: _498  and  _499
REMARK  202  A    between atoms: _502  and  _504
REMARK  203  A    between atoms: _504  and  _505
REMARK  204  A    between atoms: _507  and  _509
REMARK  205  A    between atoms: _509  and  _510
REMARK  206  A    between atoms: _509  and  _512
REMARK  207  A    between atoms: _512  and  _513
REMARK  208  A    between atoms: _513  and  _514
REMARK  209  A    between atoms: _519  and  _521
REMARK  210  A    between atoms: _521  and  _522
REMARK  211  A    between atoms: _521  and  _524
REMARK  212  A    between atoms: _524  and  _525
REMARK  213  A    between atoms: _527  and  _529
REMARK  214  A    between atoms: _529  and  _530
REMARK  215  A    between atoms: _529  and  _532
REMARK  216  A    between atoms: _532  and  _533
REMARK  217  A    between atoms: _538  and  _540
REMARK  218  A    between atoms: _540  and  _541
REMARK  219  A    between atoms: _540  and  _543
REMARK  220  A    between atoms: _543  and  _544
REMARK  221  A    between atoms: _546  and  _548
REMARK  222  A    between atoms: _548  and  _549
REMARK  223  A    between atoms: _548  and  _551
REMARK  224  A    between atoms: _551  and  _552
REMARK  225  A    between atoms: _555  and  _557
REMARK  226  A    between atoms: _557  and  _558
REMARK  227  A    between atoms: _557  and  _560
REMARK  228  A    between atoms: _560  and  _561
REMARK  229  A    between atoms: _567  and  _569
REMARK  230  A    between atoms: _569  and  _570
REMARK  231  A    between atoms: _569  and  _572
REMARK  232  A    between atoms: _572  and  _573
REMARK  233  A    between atoms: _575  and  _577
REMARK  234  A    between atoms: _577  and  _578
REMARK  235  A    between atoms: _577  and  _580
REMARK  236  A    between atoms: _580  and  _581
REMARK  237  A    between atoms: _584  and  _586
REMARK  238  A    between atoms: _586  and  _587
REMARK  239  A    between atoms: _586  and  _589
REMARK  240  A    between atoms: _589  and  _590
REMARK  241  A    between atoms: _596  and  _598
REMARK  242  A    between atoms: _598  and  _599
REMARK  243  A    between atoms: _601  and  _603
REMARK  244  A    between atoms: _603  and  _604
REMARK  245  A    between atoms: _603  and  _606
REMARK  246  A    between atoms: _606  and  _607
REMARK                            x       y       z     vdW  Elec       q    Type
REMARK                         _______ _______ _______ _____ _____    ______ ____
ROOT
ATOM      1  C   PRO A   1       7.173  -0.267  13.610  0.00  0.00    +0.239 C 
ATOM      2  N   SER A   2       6.460  -0.674  14.617  0.00  0.00    -0.296 N 
ATOM      3  H   SER A   2       5.458  -0.907  14.466  0.00  0.00    +0.150 HD
ATOM      4  O   PRO A   1       8.414  -0.034  13.640  0.00  0.00    -0.274 OA
ENDROOT
BRANCH   1   6
ATOM      5  N   PRO A   1       6.776   1.210  11.699  0.00  0.00    -0.210 NA
ATOM      6  CA  PRO A   1       6.440  -0.082  12.335  0.00  0.00    +0.149 C 
ATOM      7  CB  PRO A   1       6.965  -1.154  11.348  0.00  0.00    +0.028 C 
ATOM      8  CG  PRO A   1       6.820  -0.423  10.028  0.00  0.00    +0.021 C 
ATOM      9  CD  PRO A   1       7.340   1.018  10.356  0.00  0.00    +0.089 C 
ENDBRANCH   1   6
BRANCH   2  10
ATOM     10  CA  SER A   2       7.034  -0.814  15.968  0.00  0.00    +0.166 C 
BRANCH  10  11
ATOM     11  CB  SER A   2       7.921  -2.050  15.962  0.00  0.00    +0.229 C 
ATOM     12  OG  SER A   2       8.816  -2.118  16.819  0.00  0.00    -0.286 OA
ENDBRANCH  10  11
BRANCH  10  13
ATOM     13  C   SER A   2       5.882  -0.895  16.980  0.00  0.00    +0.165 C 
BRANCH  13  14
ATOM     14  O   SER A   2       5.331  -2.192  16.832  0.00  0.00    -0.380 OA
ATOM     15  H   SER A   2       4.578  -2.303  17.465  0.00  0.00    +0.211 HD
ENDBRANCH  13  14
ENDBRANCH  10  13
ENDBRANCH   2  10
TORSDOF 5
REMARK  Name = ../refined-set-2016/1ppl/1ppl_pocket.pdb
REMARK  246 active torsions:
REMARK  status: ('A' for Active; 'I' for Inactive)
REMARK    1  A    between atoms: _1  and  _3
REMARK    2  A    between atoms: _3  and  _4
REMARK    3  A    between atoms: _3  and  _6
REMARK    4  A    between atoms: _6  and  _7
REMARK    5  A    between atoms: _10  and  _12
REMARK    6  A    between atoms: _12  and  _13
REMARK    7  A    between atoms: _16  and  _18
REMARK    8  A    between atoms: _18  and  _19
REMARK    9  A    between atoms: _18  and  _21
REMARK   10  A    between atoms: _21  and  _22
REMARK   11  A    between atoms: _27  and  _29
REMARK   12  A    between atoms: _29  and  _30
REMARK   13  A    between atoms: _29  and  _32
REMARK   14  A    between atoms: _32  and  _33
REMARK   15  A    between atoms: _36  and  _38
REMARK   16  A    between atoms: _38  and  _39
REMARK   17  A    between atoms: _38  and  _41
REMARK   18  A    between atoms: _41  and  _42
REMARK   19  A    between atoms: _42  and  _43
REMARK   20  A    between atoms: _46  and  _48
REMARK   21  A    between atoms: _48  and  _49
REMARK   22  A    between atoms: _48  and  _51
REMARK   23  A    between atoms: _51  and  _52
REMARK   24  A    between atoms: _52  and  _53
REMARK   25  A    between atoms: _56  and  _58
REMARK   26  A    between atoms: _58  and  _59
REMARK   27  A    between atoms: _58  and  _61
REMARK   28  A    between atoms: _61  and  _62
REMARK   29  A    between atoms: _67  and  _68
REMARK   30  A    between atoms: _70  and  _72
REMARK   31  A    between atoms: _72  and  _73
REMARK   32  A    between atoms: _72  and  _75
REMARK   33  A    between atoms: _75  and  _76
REMARK   34  A    between atoms: _81  and  _83
REMARK   35  A    between atoms: _83  and  _84
REMARK   36  A    between atoms: _83  and  _86
REMARK   37  A    between atoms: _86  and  _87
REMARK   38  A    between atoms: _93  and  _95
REMARK   39  A    between atoms: _95  and  _96
REMARK   40  A    between atoms: _95  and  _98
REMARK   41  A    between atoms: _98  and  _99
REMARK   42  A    between atoms: _102  and  _104
REMARK   43  A    between atoms: _104  and  _105
REMARK   44  A    between atoms: _104  and  _107
REMARK   45  A    between atoms: _107  and  _108
REMARK   46  A    between atoms: _111  and  _113
REMARK   47  A    between atoms: _113  and  _114
REMARK   48  A    between atoms: _116  and  _118
REMARK   49  A    between atoms: _118  and  _119
REMARK   50  A    between atoms: _118  and  _121
REMARK   51  A    between atoms: _121  and  _122
REMARK   52  A    between atoms: _124  and  _126
REMARK   53  A    between atoms: _126  and  _127
REMARK   54  A    between atoms: _130  and  _132
REMARK   55  A    between atoms: _132  and  _133
REMARK   56  A    between atoms: _132  and  _135
REMARK   57  A    between atoms: _135  and  _136
REMARK   58  A    between atoms: _139  and  _141
REMARK   59  A    between atoms: _141  and  _142
REMARK   60  A    between atoms: _141  and  _144
REMARK   61  A    between atoms: _144  and  _145
REMARK   62  A    between atoms: _155  and  _157
REMARK   63  A    between atoms: _157  and  _158
REMARK   64  A    between atoms: _157  and  _160
REMARK   65  A    between atoms: _160  and  _161
REMARK   66  A    between atoms: _164  and  _166
REMARK   67  A    between atoms: _166  and  _167
REMARK   68  A    between atoms: _166  and  _169
REMARK   69  A    between atoms: _169  and  _170
REMARK   70  A    between atoms: _172  and  _174
REMARK   71  A    between atoms: _174  and  _175
REMARK   72  A    between atoms: _174  and  _177
REMARK   73  A    between atoms: _177  and  _178
REMARK   74  A    between atoms: _183  and  _184
REMARK   75  A    between atoms: _186  and  _188
REMARK   76  A    between atoms: _188  and  _189
REMARK   77  A    between atoms: _191  and  _193
REMARK   78  A    between atoms: _193  and  _194
REMARK   79  A    between atoms: _193  and  _196
REMARK   80  A    between atoms: _196  and  _197
REMARK   81  A    between atoms: _200  and  _202
REMARK   82  A    between atoms: _202  and  _203
REMARK   83  A    between atoms: _205  and  _207
REMARK   84  A    between atoms: _207  and  _208
REMARK   85  A    between atoms: _207  and  _210
REMARK   86  A    between atoms: _210  and  _211
REMARK   87  A    between atoms: _213  and  _215
REMARK   88  A    between atoms: _215  and  _216
REMARK   89  A    between atoms: _215  and  _218
REMARK   90  A    between atoms: _218  and  _219
REMARK   91  A    between atoms: _221  and  _223
REMARK   92  A    between atoms: _223  and  _224
REMARK   93  A    between atoms: _223  and  _226
REMARK   94  A    between atoms: _226  and  _227
REMARK   95  A    between atoms: _227  and  _228
REMARK   96  A    between atoms: _233  and  _235
REMARK   97  A    between atoms: _235  and  _236
REMARK   98  A    between atoms: _235  and  _238
REMARK   99  A    between atoms: _238  and  _239
REMARK  100  A    between atoms: _245  and  _247
REMARK  101  A    between atoms: _247  and  _248
REMARK  102  A    between atoms: _247  and  _250
REMARK  103  A    between atoms: _250  and  _251
REMARK  104  A    between atoms: _254  and  _256
REMARK  105  A    between atoms: _256  and  _257
REMARK  106  A    between atoms: _256  and  _259
REMARK  107  A    between atoms: _259  and  _260
REMARK  108  A    between atoms: _265  and  _267
REMARK  109  A    between atoms: _267  and  _268
REMARK  110  A    between atoms: _267  and  _270
REMARK  111  A    between atoms: _270  and  _271
REMARK  112  A    between atoms: _276  and  _278
REMARK  113  A    between atoms: _278  and  _279
REMARK  114  A    between atoms: _281  and  _283
REMARK  115  A    between atoms: _283  and  _284
REMARK  116  A    between atoms: _283  and  _286
REMARK  117  A    between atoms: _286  and  _287
REMARK  118  A    between atoms: _290  and  _292
REMARK  119  A    between atoms: _292  and  _293
REMARK  120  A    between atoms: _292  and  _295
REMARK  121  A    between atoms: _295  and  _296
REMARK  122  A    between atoms: _299  and  _301
REMARK  123  A    between atoms: _301  and  _302
REMARK  124  A    between atoms: _304  and  _306
REMARK  125  A    between atoms: _306  and  _307
REMARK  126  A    between atoms: _306  and  _309
REMARK  127  A    between atoms: _309  and  _310
REMARK  128  A    between atoms: _313  and  _315
REMARK  129  A    between atoms: _315  and  _316
REMARK  130  A    between atoms: _319  and  _321
REMARK  131  A    between atoms: _321  and  _322
REMARK  132  A    between atoms: _321  and  _324
REMARK  133  A    between atoms: _324  and  _325
REMARK  134  A    between atoms: _328  and  _330
REMARK  135  A    between atoms: _330  and  _331
REMARK  136  A    between atoms: _330  and  _333
REMARK  137  A    between atoms: _333  and  _334
REMARK  138  A    between atoms: _337  and  _339
REMARK  139  A    between atoms: _339  and  _340
REMARK  140  A    between atoms: _339  and  _342
REMARK  141  A    between atoms: _342  and  _343
REMARK  142  A    between atoms: _349  and  _351
REMARK  143  A    between atoms: _351  and  _352
REMARK  144  A    between atoms: _351  and  _354
REMARK  145  A    between atoms: _354  and  _355
REMARK  146  A    between atoms: _365  and  _367
REMARK  147  A    between atoms: _367  and  _368
REMARK  148  A    between atoms: _367  and  _370
REMARK  149  A    between atoms: _370  and  _371
REMARK  150  A    between atoms: _374  and  _376
REMARK  151  A    between atoms: _376  and  _377
REMARK  152  A    between atoms: _380  and  _382
REMARK  153  A    between atoms: _382  and  _383
REMARK  154  A    between atoms: _382  and  _385
REMARK  155  A    between atoms: _385  and  _386
REMARK  156  A    between atoms: _389  and  _391
REMARK  157  A    between atoms: _391  and  _392
REMARK  158  A    between atoms: _391  and  _394
REMARK  159  A    between atoms: _394  and  _395
REMARK  160  A    between atoms: _398  and  _400
REMARK  161  A    between atoms: _400  and  _401
REMARK  162  A    between atoms: _403  and  _405
REMARK  163  A    between atoms: _405  and  _406
REMARK  164  A    between atoms: _405  and  _408
REMARK  165  A    between atoms: _408  and  _409
REMARK  166  A    between atoms: _412  and  _414
REMARK  167  A    between atoms: _414  and  _415
REMARK  168  A    between atoms: _414  and  _417
REMARK  169  A    between atoms: _417  and  _418
REMARK  170  A    between atoms: _421  and  _423
REMARK  171  A    between atoms: _423  and  _424
REMARK  172  A    between atoms: _423  and  _426
REMARK  173  A    between atoms: _426  and  _427
REMARK  174  A    between atoms: _430  and  _432
REMARK  175  A    between atoms: _432  and  _433
REMARK  176  A    between atoms: _432  and  _435
REMARK  177  A    between atoms: _435  and  _436
REMARK  178  A    between atoms: _439  and  _441
REMARK  179  A    between atoms: _441  and  _442
REMARK  180  A    between atoms: _441  and  _444
REMARK  181  A    between atoms: _444  and  _445
REMARK  182  A    between atoms: _448  and  _450
REMARK  183  A    between atoms: _450  and  _451
REMARK  184  A    between atoms: _454  and  _456
REMARK  185  A    between atoms: _456  and  _457
REMARK  186  A    between atoms: _459  and  _461
REMARK  187  A    between atoms: _461  and  _462
REMARK  188  A    between atoms: _464  and  _466
REMARK  189  A    between atoms: _466  and  _467
REMARK  190  A    between atoms: _466  and  _469
REMARK  191  A    between atoms: _469  and  _470
REMARK  192  A    between atoms: _475  and  _476
REMARK  193  A    between atoms: _479  and  _480
REMARK  194  A    between atoms: _485  and  _487
REMARK  195  A    between atoms: _487  and  _488
REMARK  196  A    between atoms: _487  and  _490
REMARK  197  A    between atoms: _490  and  _491
REMARK  198  A    between atoms: _493  and  _495
REMARK  199  A    between atoms: _495  and  _496
REMARK  200  A    between atoms: _495  and  _498
REMARK  201  A    between atoms: _498  and  _499
REMARK  202  A    between atoms: _502  and  _504
REMARK  203  A    between atoms: _504  and  _505
REMARK  204  A    between atoms: _507  and  _509
REMARK  205  A    between atoms: _509  and  _510
REMARK  206  A    between atoms: _509  and  _512
REMARK  207  A    between atoms: _512  and  _513
REMARK  208  A    between atoms: _513  and  _514
REMARK  209  A    between atoms: _519  and  _521
REMARK  210  A    between atoms: _521  and  _522
REMARK  211  A    between atoms: _521  and  _524
REMARK  212  A    between atoms: _524  and  _525
REMARK  213  A    between atoms: _527  and  _529
REMARK  214  A    between atoms: _529  and  _530
REMARK  215  A    between atoms: _529  and  _532
REMARK  216  A    between atoms: _532  and  _533
REMARK  217  A    between atoms: _538  and  _540
REMARK  218  A    between atoms: _540  and  _541
REMARK  219  A    between atoms: _540  and  _543
REMARK  220  A    between atoms: _543  and  _544
REMARK  221  A    between atoms: _546  and  _548
REMARK  222  A    between atoms: _548  and  _549
REMARK  223  A    between atoms: _548  and  _551
REMARK  224  A    between atoms: _551  and  _552
REMARK  225  A    between atoms: _555  and  _557
REMARK  226  A    between atoms: _557  and  _558
REMARK  227  A    between atoms: _557  and  _560
REMARK  228  A    between atoms: _560  and  _561
REMARK  229  A    between atoms: _567  and  _569
REMARK  230  A    between atoms: _569  and  _570
REMARK  231  A    between atoms: _569  and  _572
REMARK  232  A    between atoms: _572  and  _573
REMARK  233  A    between atoms: _575  and  _577
REMARK  234  A    between atoms: _577  and  _578
REMARK  235  A    between atoms: _577  and  _580
REMARK  236  A    between atoms: _580  and  _581
REMARK  237  A    between atoms: _584  and  _586
REMARK  238  A    between atoms: _586  and  _587
REMARK  239  A    between atoms: _586  and  _589
REMARK  240  A    between atoms: _589  and  _590
REMARK  241  A    between atoms: _596  and  _598
REMARK  242  A    between atoms: _598  and  _599
REMARK  243  A    between atoms: _601  and  _603
REMARK  244  A    between atoms: _603  and  _604
REMARK  245  A    between atoms: _603  and  _606
REMARK  246  A    between atoms: _606  and  _607
REMARK                            x       y       z     vdW  Elec       q    Type
REMARK                         _______ _______ _______ _____ _____    ______ ____
ROOT
ATOM      1  CA  LEU A   1       5.839   3.557  17.175  0.00  0.00    +0.145 C 
ENDROOT
BRANCH   1   2
ATOM      2  C   LEU A   1       5.620   5.097  17.060  0.00  0.00    +0.238 C 
ATOM      3  N   GLY A   2       5.351   5.704  18.195  0.00  0.00    -0.297 N 
ATOM      4  H   GLY A   2       5.257   5.171  19.083  0.00  0.00    +0.150 HD
ATOM      5  O   LEU A   1       5.824   5.582  15.980  0.00  0.00    -0.274 OA
BRANCH   3   6
ATOM      6  CA  GLY A   2       5.185   7.186  18.162  0.00  0.00    +0.163 C 
BRANCH   6   7
ATOM      7  C   GLY A   2       6.566   7.847  18.015  0.00  0.00    +0.229 C 
ATOM      8  O   GLY A   2       7.593   7.378  18.625  0.00  0.00    -0.286 OA
ENDBRANCH   6   7
ENDBRANCH   3   6
ENDBRANCH   1   2
BRANCH   1   9
ATOM      9  N   LEU A   1       5.281   2.923  15.965  0.00  0.00    -0.238 NA
ATOM     10  H   LEU A   1       5.851   2.797  15.104  0.00  0.00    +0.142 HD
ENDBRANCH   1   9
BRANCH   1  11
ATOM     11  CB  LEU A   1       7.350   3.214  17.182  0.00  0.00    +0.026 C 
BRANCH  11  12
ATOM     12  CG  LEU A   1       8.154   3.747  18.365  0.00  0.00    +0.002 C 
ATOM     13  CD2 LEU A   1       7.779   3.189  19.683  0.00  0.00    +0.000 C 
ATOM     14  CD1 LEU A   1       9.618   3.368  17.987  0.00  0.00    +0.000 C 
ENDBRANCH  11  12
ENDBRANCH   1  11
TORSDOF 6
REMARK  Name = ../refined-set-2016/1ppl/1ppl_pocket.pdb
REMARK  246 active torsions:
REMARK  status: ('A' for Active; 'I' for Inactive)
REMARK    1  A    between atoms: _1  and  _3
REMARK    2  A    between atoms: _3  and  _4
REMARK    3  A    between atoms: _3  and  _6
REMARK    4  A    between atoms: _6  and  _7
REMARK    5  A    between atoms: _10  and  _12
REMARK    6  A    between atoms: _12  and  _13
REMARK    7  A    between atoms: _16  and  _18
REMARK    8  A    between atoms: _18  and  _19
REMARK    9  A    between atoms: _18  and  _21
REMARK   10  A    between atoms: _21  and  _22
REMARK   11  A    between atoms: _27  and  _29
REMARK   12  A    between atoms: _29  and  _30
REMARK   13  A    between atoms: _29  and  _32
REMARK   14  A    between atoms: _32  and  _33
REMARK   15  A    between atoms: _36  and  _38
REMARK   16  A    between atoms: _38  and  _39
REMARK   17  A    between atoms: _38  and  _41
REMARK   18  A    between atoms: _41  and  _42
REMARK   19  A    between atoms: _42  and  _43
REMARK   20  A    between atoms: _46  and  _48
REMARK   21  A    between atoms: _48  and  _49
REMARK   22  A    between atoms: _48  and  _51
REMARK   23  A    between atoms: _51  and  _52
REMARK   24  A    between atoms: _52  and  _53
REMARK   25  A    between atoms: _56  and  _58
REMARK   26  A    between atoms: _58  and  _59
REMARK   27  A    between atoms: _58  and  _61
REMARK   28  A    between atoms: _61  and  _62
REMARK   29  A    between atoms: _67  and  _68
REMARK   30  A    between atoms: _70  and  _72
REMARK   31  A    between atoms: _72  and  _73
REMARK   32  A    between atoms: _72  and  _75
REMARK   33  A    between atoms: _75  and  _76
REMARK   34  A    between atoms: _81  and  _83
REMARK   35  A    between atoms: _83  and  _84
REMARK   36  A    between atoms: _83  and  _86
REMARK   37  A    between atoms: _86  and  _87
REMARK   38  A    between atoms: _93  and  _95
REMARK   39  A    between atoms: _95  and  _96
REMARK   40  A    between atoms: _95  and  _98
REMARK   41  A    between atoms: _98  and  _99
REMARK   42  A    between atoms: _102  and  _104
REMARK   43  A    between atoms: _104  and  _105
REMARK   44  A    between atoms: _104  and  _107
REMARK   45  A    between atoms: _107  and  _108
REMARK   46  A    between atoms: _111  and  _113
REMARK   47  A    between atoms: _113  and  _114
REMARK   48  A    between atoms: _116  and  _118
REMARK   49  A    between atoms: _118  and  _119
REMARK   50  A    between atoms: _118  and  _121
REMARK   51  A    between atoms: _121  and  _122
REMARK   52  A    between atoms: _124  and  _126
REMARK   53  A    between atoms: _126  and  _127
REMARK   54  A    between atoms: _130  and  _132
REMARK   55  A    between atoms: _132  and  _133
REMARK   56  A    between atoms: _132  and  _135
REMARK   57  A    between atoms: _135  and  _136
REMARK   58  A    between atoms: _139  and  _141
REMARK   59  A    between atoms: _141  and  _142
REMARK   60  A    between atoms: _141  and  _144
REMARK   61  A    between atoms: _144  and  _145
REMARK   62  A    between atoms: _155  and  _157
REMARK   63  A    between atoms: _157  and  _158
REMARK   64  A    between atoms: _157  and  _160
REMARK   65  A    between atoms: _160  and  _161
REMARK   66  A    between atoms: _164  and  _166
REMARK   67  A    between atoms: _166  and  _167
REMARK   68  A    between atoms: _166  and  _169
REMARK   69  A    between atoms: _169  and  _170
REMARK   70  A    between atoms: _172  and  _174
REMARK   71  A    between atoms: _174  and  _175
REMARK   72  A    between atoms: _174  and  _177
REMARK   73  A    between atoms: _177  and  _178
REMARK   74  A    between atoms: _183  and  _184
REMARK   75  A    between atoms: _186  and  _188
REMARK   76  A    between atoms: _188  and  _189
REMARK   77  A    between atoms: _191  and  _193
REMARK   78  A    between atoms: _193  and  _194
REMARK   79  A    between atoms: _193  and  _196
REMARK   80  A    between atoms: _196  and  _197
REMARK   81  A    between atoms: _200  and  _202
REMARK   82  A    between atoms: _202  and  _203
REMARK   83  A    between atoms: _205  and  _207
REMARK   84  A    between atoms: _207  and  _208
REMARK   85  A    between atoms: _207  and  _210
REMARK   86  A    between atoms: _210  and  _211
REMARK   87  A    between atoms: _213  and  _215
REMARK   88  A    between atoms: _215  and  _216
REMARK   89  A    between atoms: _215  and  _218
REMARK   90  A    between atoms: _218  and  _219
REMARK   91  A    between atoms: _221  and  _223
REMARK   92  A    between atoms: _223  and  _224
REMARK   93  A    between atoms: _223  and  _226
REMARK   94  A    between atoms: _226  and  _227
REMARK   95  A    between atoms: _227  and  _228
REMARK   96  A    between atoms: _233  and  _235
REMARK   97  A    between atoms: _235  and  _236
REMARK   98  A    between atoms: _235  and  _238
REMARK   99  A    between atoms: _238  and  _239
REMARK  100  A    between atoms: _245  and  _247
REMARK  101  A    between atoms: _247  and  _248
REMARK  102  A    between atoms: _247  and  _250
REMARK  103  A    between atoms: _250  and  _251
REMARK  104  A    between atoms: _254  and  _256
REMARK  105  A    between atoms: _256  and  _257
REMARK  106  A    between atoms: _256  and  _259
REMARK  107  A    between atoms: _259  and  _260
REMARK  108  A    between atoms: _265  and  _267
REMARK  109  A    between atoms: _267  and  _268
REMARK  110  A    between atoms: _267  and  _270
REMARK  111  A    between atoms: _270  and  _271
REMARK  112  A    between atoms: _276  and  _278
REMARK  113  A    between atoms: _278  and  _279
REMARK  114  A    between atoms: _281  and  _283
REMARK  115  A    between atoms: _283  and  _284
REMARK  116  A    between atoms: _283  and  _286
REMARK  117  A    between atoms: _286  and  _287
REMARK  118  A    between atoms: _290  and  _292
REMARK  119  A    between atoms: _292  and  _293
REMARK  120  A    between atoms: _292  and  _295
REMARK  121  A    between atoms: _295  and  _296
REMARK  122  A    between atoms: _299  and  _301
REMARK  123  A    between atoms: _301  and  _302
REMARK  124  A    between atoms: _304  and  _306
REMARK  125  A    between atoms: _306  and  _307
REMARK  126  A    between atoms: _306  and  _309
REMARK  127  A    between atoms: _309  and  _310
REMARK  128  A    between atoms: _313  and  _315
REMARK  129  A    between atoms: _315  and  _316
REMARK  130  A    between atoms: _319  and  _321
REMARK  131  A    between atoms: _321  and  _322
REMARK  132  A    between atoms: _321  and  _324
REMARK  133  A    between atoms: _324  and  _325
REMARK  134  A    between atoms: _328  and  _330
REMARK  135  A    between atoms: _330  and  _331
REMARK  136  A    between atoms: _330  and  _333
REMARK  137  A    between atoms: _333  and  _334
REMARK  138  A    between atoms: _337  and  _339
REMARK  139  A    between atoms: _339  and  _340
REMARK  140  A    between atoms: _339  and  _342
REMARK  141  A    between atoms: _342  and  _343
REMARK  142  A    between atoms: _349  and  _351
REMARK  143  A    between atoms: _351  and  _352
REMARK  144  A    between atoms: _351  and  _354
REMARK  145  A    between atoms: _354  and  _355
REMARK  146  A    between atoms: _365  and  _367
REMARK  147  A    between atoms: _367  and  _368
REMARK  148  A    between atoms: _367  and  _370
REMARK  149  A    between atoms: _370  and  _371
REMARK  150  A    between atoms: _374  and  _376
REMARK  151  A    between atoms: _376  and  _377
REMARK  152  A    between atoms: _380  and  _382
REMARK  153  A    between atoms: _382  and  _383
REMARK  154  A    between atoms: _382  and  _385
REMARK  155  A    between atoms: _385  and  _386
REMARK  156  A    between atoms: _389  and  _391
REMARK  157  A    between atoms: _391  and  _392
REMARK  158  A    between atoms: _391  and  _394
REMARK  159  A    between atoms: _394  and  _395
REMARK  160  A    between atoms: _398  and  _400
REMARK  161  A    between atoms: _400  and  _401
REMARK  162  A    between atoms: _403  and  _405
REMARK  163  A    between atoms: _405  and  _406
REMARK  164  A    between atoms: _405  and  _408
REMARK  165  A    between atoms: _408  and  _409
REMARK  166  A    between atoms: _412  and  _414
REMARK  167  A    between atoms: _414  and  _415
REMARK  168  A    between atoms: _414  and  _417
REMARK  169  A    between atoms: _417  and  _418
REMARK  170  A    between atoms: _421  and  _423
REMARK  171  A    between atoms: _423  and  _424
REMARK  172  A    between atoms: _423  and  _426
REMARK  173  A    between atoms: _426  and  _427
REMARK  174  A    between atoms: _430  and  _432
REMARK  175  A    between atoms: _432  and  _433
REMARK  176  A    between atoms: _432  and  _435
REMARK  177  A    between atoms: _435  and  _436
REMARK  178  A    between atoms: _439  and  _441
REMARK  179  A    between atoms: _441  and  _442
REMARK  180  A    between atoms: _441  and  _444
REMARK  181  A    between atoms: _444  and  _445
REMARK  182  A    between atoms: _448  and  _450
REMARK  183  A    between atoms: _450  and  _451
REMARK  184  A    between atoms: _454  and  _456
REMARK  185  A    between atoms: _456  and  _457
REMARK  186  A    between atoms: _459  and  _461
REMARK  187  A    between atoms: _461  and  _462
REMARK  188  A    between atoms: _464  and  _466
REMARK  189  A    between atoms: _466  and  _467
REMARK  190  A    between atoms: _466  and  _469
REMARK  191  A    between atoms: _469  and  _470
REMARK  192  A    between atoms: _475  and  _476
REMARK  193  A    between atoms: _479  and  _480
REMARK  194  A    between atoms: _485  and  _487
REMARK  195  A    between atoms: _487  and  _488
REMARK  196  A    between atoms: _487  and  _490
REMARK  197  A    between atoms: _490  and  _491
REMARK  198  A    between atoms: _493  and  _495
REMARK  199  A    between atoms: _495  and  _496
REMARK  200  A    between atoms: _495  and  _498
REMARK  201  A    between atoms: _498  and  _499
REMARK  202  A    between atoms: _502  and  _504
REMARK  203  A    between atoms: _504  and  _505
REMARK  204  A    between atoms: _507  and  _509
REMARK  205  A    between atoms: _509  and  _510
REMARK  206  A    between atoms: _509  and  _512
REMARK  207  A    between atoms: _512  and  _513
REMARK  208  A    between atoms: _513  and  _514
REMARK  209  A    between atoms: _519  and  _521
REMARK  210  A    between atoms: _521  and  _522
REMARK  211  A    between atoms: _521  and  _524
REMARK  212  A    between atoms: _524  and  _525
REMARK  213  A    between atoms: _527  and  _529
REMARK  214  A    between atoms: _529  and  _530
REMARK  215  A    between atoms: _529  and  _532
REMARK  216  A    between atoms: _532  and  _533
REMARK  217  A    between atoms: _538  and  _540
REMARK  218  A    between atoms: _540  and  _541
REMARK  219  A    between atoms: _540  and  _543
REMARK  220  A    between atoms: _543  and  _544
REMARK  221  A    between atoms: _546  and  _548
REMARK  222  A    between atoms: _548  and  _549
REMARK  223  A    between atoms: _548  and  _551
REMARK  224  A    between atoms: _551  and  _552
REMARK  225  A    between atoms: _555  and  _557
REMARK  226  A    between atoms: _557  and  _558
REMARK  227  A    between atoms: _557  and  _560
REMARK  228  A    between atoms: _560  and  _561
REMARK  229  A    between atoms: _567  and  _569
REMARK  230  A    between atoms: _569  and  _570
REMARK  231  A    between atoms: _569  and  _572
REMARK  232  A    between atoms: _572  and  _573
REMARK  233  A    between atoms: _575  and  _577
REMARK  234  A    between atoms: _577  and  _578
REMARK  235  A    between atoms: _577  and  _580
REMARK  236  A    between atoms: _580  and  _581
REMARK  237  A    between atoms: _584  and  _586
REMARK  238  A    between atoms: _586  and  _587
REMARK  239  A    between atoms: _586  and  _589
REMARK  240  A    between atoms: _589  and  _590
REMARK  241  A    between atoms: _596  and  _598
REMARK  242  A    between atoms: _598  and  _599
REMARK  243  A    between atoms: _601  and  _603
REMARK  244  A    between atoms: _603  and  _604
REMARK  245  A    between atoms: _603  and  _606
REMARK  246  A    between atoms: _606  and  _607
REMARK                            x       y       z     vdW  Elec       q    Type
REMARK                         _______ _______ _______ _____ _____    ______ ____
ROOT
ATOM      1  C   SER A   2      11.265  10.391  27.192  0.00  0.00    +0.243 C 
ATOM      2  N   ASN A   3      11.646  11.485  27.834  0.00  0.00    -0.297 N 
ATOM      3  H   ASN A   3      10.892  12.094  28.212  0.00  0.00    +0.150 HD
ATOM      4  O   SER A   2      12.062   9.665  26.584  0.00  0.00    -0.273 OA
ENDROOT
BRANCH   2   5
ATOM      5  CA  ASN A   3      13.030  11.922  28.064  0.00  0.00    +0.158 C 
BRANCH   5   6
ATOM      6  C   ASN A   3      13.560  11.305  29.355  0.00  0.00    +0.241 C 
ATOM      7  N   SER A   4      12.747  10.400  29.947  0.00  0.00    -0.296 N 
ATOM      8  H   SER A   4      11.829  10.191  29.505  0.00  0.00    +0.150 HD
ATOM      9  O   ASN A   3      14.675  11.598  29.828  0.00  0.00    -0.273 OA
BRANCH   7  10
ATOM     10  CA  SER A   4      13.108   9.694  31.197  0.00  0.00    +0.166 C 
BRANCH  10  11
ATOM     11  C   SER A   4      13.540  10.535  32.374  0.00  0.00    +0.229 C 
ATOM     12  O   SER A   4      14.354  10.033  33.188  0.00  0.00    -0.286 OA
ENDBRANCH  10  11
BRANCH  10  13
ATOM     13  CB  SER A   4      14.248   8.724  30.978  0.00  0.00    +0.165 C 
BRANCH  13  14
ATOM     14  OG  SER A   4      14.087   7.881  29.896  0.00  0.00    -0.380 OA
ATOM     15  H   SER A   4      14.005   8.419  29.069  0.00  0.00    +0.211 HD
ENDBRANCH  13  14
ENDBRANCH  10  13
ENDBRANCH   7  10
ENDBRANCH   5   6
BRANCH   5  16
ATOM     16  CB  ASN A   3      13.186  13.459  28.048  0.00  0.00    +0.114 C 
BRANCH  16  17
ATOM     17  CG  ASN A   3      12.488  14.072  29.237  0.00  0.00    +0.222 C 
ATOM     18  OD1 ASN A   3      11.953  13.412  30.141  0.00  0.00    -0.275 OA
ATOM     19  ND2 ASN A   3      12.497  15.448  29.193  0.00  0.00    -0.329 N 
ATOM     20 HD21 ASN A   3      12.036  15.995  29.948  0.00  0.00    +0.145 HD
ATOM     21 HD22 ASN A   3      12.964  15.940  28.405  0.00  0.00    +0.145 HD
ENDBRANCH  16  17
ENDBRANCH   5  16
ENDBRANCH   2   5
BRANCH   1  22
ATOM     22  CA  SER A   2       9.776  10.097  27.246  0.00  0.00    +0.178 C 
BRANCH  22  24
ATOM     23  C   GLN A   1       9.163  10.224  24.895  0.00  0.00    +0.238 C 
ATOM     24  N   SER A   2       9.247   9.533  25.984  0.00  0.00    -0.295 N 
ATOM     25  H   SER A   2       8.931   8.542  25.973  0.00  0.00    +0.150 HD
ATOM     26  O   GLN A   1       9.527  11.418  24.740  0.00  0.00    -0.274 OA
BRANCH  23  27
ATOM     27  CA  GLN A   1       8.604   9.489  23.690  0.00  0.00    +0.145 C 
BRANCH  27  28
ATOM     28  N   GLN A   1       8.375  10.494  22.569  0.00  0.00    -0.238 NA
ATOM     29  H   GLN A   1       9.047  11.274  22.423  0.00  0.00    +0.142 HD
ENDBRANCH  27  28
BRANCH  27  30
ATOM     30  CB  GLN A   1       9.461   8.305  23.253  0.00  0.00    +0.036 C 
BRANCH  30  31
ATOM     31  CG  GLN A   1       8.913   7.534  22.106  0.00  0.00    +0.087 C 
BRANCH  31  32
ATOM     32  CD  GLN A   1       7.622   6.716  22.396  0.00  0.00    +0.219 C 
ATOM     33  OE1 GLN A   1       7.216   6.505  23.535  0.00  0.00    -0.275 OA
ATOM     34  NE2 GLN A   1       7.053   6.281  21.269  0.00  0.00    -0.329 N 
ATOM     35 HE21 GLN A   1       6.186   5.708  21.312  0.00  0.00    +0.145 HD
ATOM     36 HE22 GLN A   1       7.477   6.515  20.349  0.00  0.00    +0.145 HD
ENDBRANCH  31  32
ENDBRANCH  30  31
ENDBRANCH  27  30
ENDBRANCH  23  27
ENDBRANCH  22  24
BRANCH  22  37
ATOM     37  CB  SER A   2       9.459   9.085  28.351  0.00  0.00    +0.166 C 
BRANCH  37  38
ATOM     38  OG  SER A   2       9.978   9.565  29.580  0.00  0.00    -0.380 OA
ATOM     39  H   SER A   2       9.561  10.437  29.795  0.00  0.00    +0.211 HD
ENDBRANCH  37  38
ENDBRANCH  22  37
ENDBRANCH   1  22
TORSDOF 17
REMARK  Name = ../refined-set-2016/1ppl/1ppl_pocket.pdb
REMARK  246 active torsions:
REMARK  status: ('A' for Active; 'I' for Inactive)
REMARK    1  A    between atoms: _1  and  _3
REMARK    2  A    between atoms: _3  and  _4
REMARK    3  A    between atoms: _3  and  _6
REMARK    4  A    between atoms: _6  and  _7
REMARK    5  A    between atoms: _10  and  _12
REMARK    6  A    between atoms: _12  and  _13
REMARK    7  A    between atoms: _16  and  _18
REMARK    8  A    between atoms: _18  and  _19
REMARK    9  A    between atoms: _18  and  _21
REMARK   10  A    between atoms: _21  and  _22
REMARK   11  A    between atoms: _27  and  _29
REMARK   12  A    between atoms: _29  and  _30
REMARK   13  A    between atoms: _29  and  _32
REMARK   14  A    between atoms: _32  and  _33
REMARK   15  A    between atoms: _36  and  _38
REMARK   16  A    between atoms: _38  and  _39
REMARK   17  A    between atoms: _38  and  _41
REMARK   18  A    between atoms: _41  and  _42
REMARK   19  A    between atoms: _42  and  _43
REMARK   20  A    between atoms: _46  and  _48
REMARK   21  A    between atoms: _48  and  _49
REMARK   22  A    between atoms: _48  and  _51
REMARK   23  A    between atoms: _51  and  _52
REMARK   24  A    between atoms: _52  and  _53
REMARK   25  A    between atoms: _56  and  _58
REMARK   26  A    between atoms: _58  and  _59
REMARK   27  A    between atoms: _58  and  _61
REMARK   28  A    between atoms: _61  and  _62
REMARK   29  A    between atoms: _67  and  _68
REMARK   30  A    between atoms: _70  and  _72
REMARK   31  A    between atoms: _72  and  _73
REMARK   32  A    between atoms: _72  and  _75
REMARK   33  A    between atoms: _75  and  _76
REMARK   34  A    between atoms: _81  and  _83
REMARK   35  A    between atoms: _83  and  _84
REMARK   36  A    between atoms: _83  and  _86
REMARK   37  A    between atoms: _86  and  _87
REMARK   38  A    between atoms: _93  and  _95
REMARK   39  A    between atoms: _95  and  _96
REMARK   40  A    between atoms: _95  and  _98
REMARK   41  A    between atoms: _98  and  _99
REMARK   42  A    between atoms: _102  and  _104
REMARK   43  A    between atoms: _104  and  _105
REMARK   44  A    between atoms: _104  and  _107
REMARK   45  A    between atoms: _107  and  _108
REMARK   46  A    between atoms: _111  and  _113
REMARK   47  A    between atoms: _113  and  _114
REMARK   48  A    between atoms: _116  and  _118
REMARK   49  A    between atoms: _118  and  _119
REMARK   50  A    between atoms: _118  and  _121
REMARK   51  A    between atoms: _121  and  _122
REMARK   52  A    between atoms: _124  and  _126
REMARK   53  A    between atoms: _126  and  _127
REMARK   54  A    between atoms: _130  and  _132
REMARK   55  A    between atoms: _132  and  _133
REMARK   56  A    between atoms: _132  and  _135
REMARK   57  A    between atoms: _135  and  _136
REMARK   58  A    between atoms: _139  and  _141
REMARK   59  A    between atoms: _141  and  _142
REMARK   60  A    between atoms: _141  and  _144
REMARK   61  A    between atoms: _144  and  _145
REMARK   62  A    between atoms: _155  and  _157
REMARK   63  A    between atoms: _157  and  _158
REMARK   64  A    between atoms: _157  and  _160
REMARK   65  A    between atoms: _160  and  _161
REMARK   66  A    between atoms: _164  and  _166
REMARK   67  A    between atoms: _166  and  _167
REMARK   68  A    between atoms: _166  and  _169
REMARK   69  A    between atoms: _169  and  _170
REMARK   70  A    between atoms: _172  and  _174
REMARK   71  A    between atoms: _174  and  _175
REMARK   72  A    between atoms: _174  and  _177
REMARK   73  A    between atoms: _177  and  _178
REMARK   74  A    between atoms: _183  and  _184
REMARK   75  A    between atoms: _186  and  _188
REMARK   76  A    between atoms: _188  and  _189
REMARK   77  A    between atoms: _191  and  _193
REMARK   78  A    between atoms: _193  and  _194
REMARK   79  A    between atoms: _193  and  _196
REMARK   80  A    between atoms: _196  and  _197
REMARK   81  A    between atoms: _200  and  _202
REMARK   82  A    between atoms: _202  and  _203
REMARK   83  A    between atoms: _205  and  _207
REMARK   84  A    between atoms: _207  and  _208
REMARK   85  A    between atoms: _207  and  _210
REMARK   86  A    between atoms: _210  and  _211
REMARK   87  A    between atoms: _213  and  _215
REMARK   88  A    between atoms: _215  and  _216
REMARK   89  A    between atoms: _215  and  _218
REMARK   90  A    between atoms: _218  and  _219
REMARK   91  A    between atoms: _221  and  _223
REMARK   92  A    between atoms: _223  and  _224
REMARK   93  A    between atoms: _223  and  _226
REMARK   94  A    between atoms: _226  and  _227
REMARK   95  A    between atoms: _227  and  _228
REMARK   96  A    between atoms: _233  and  _235
REMARK   97  A    between atoms: _235  and  _236
REMARK   98  A    between atoms: _235  and  _238
REMARK   99  A    between atoms: _238  and  _239
REMARK  100  A    between atoms: _245  and  _247
REMARK  101  A    between atoms: _247  and  _248
REMARK  102  A    between atoms: _247  and  _250
REMARK  103  A    between atoms: _250  and  _251
REMARK  104  A    between atoms: _254  and  _256
REMARK  105  A    between atoms: _256  and  _257
REMARK  106  A    between atoms: _256  and  _259
REMARK  107  A    between atoms: _259  and  _260
REMARK  108  A    between atoms: _265  and  _267
REMARK  109  A    between atoms: _267  and  _268
REMARK  110  A    between atoms: _267  and  _270
REMARK  111  A    between atoms: _270  and  _271
REMARK  112  A    between atoms: _276  and  _278
REMARK  113  A    between atoms: _278  and  _279
REMARK  114  A    between atoms: _281  and  _283
REMARK  115  A    between atoms: _283  and  _284
REMARK  116  A    between atoms: _283  and  _286
REMARK  117  A    between atoms: _286  and  _287
REMARK  118  A    between atoms: _290  and  _292
REMARK  119  A    between atoms: _292  and  _293
REMARK  120  A    between atoms: _292  and  _295
REMARK  121  A    between atoms: _295  and  _296
REMARK  122  A    between atoms: _299  and  _301
REMARK  123  A    between atoms: _301  and  _302
REMARK  124  A    between atoms: _304  and  _306
REMARK  125  A    between atoms: _306  and  _307
REMARK  126  A    between atoms: _306  and  _309
REMARK  127  A    between atoms: _309  and  _310
REMARK  128  A    between atoms: _313  and  _315
REMARK  129  A    between atoms: _315  and  _316
REMARK  130  A    between atoms: _319  and  _321
REMARK  131  A    between atoms: _321  and  _322
REMARK  132  A    between atoms: _321  and  _324
REMARK  133  A    between atoms: _324  and  _325
REMARK  134  A    between atoms: _328  and  _330
REMARK  135  A    between atoms: _330  and  _331
REMARK  136  A    between atoms: _330  and  _333
REMARK  137  A    between atoms: _333  and  _334
REMARK  138  A    between atoms: _337  and  _339
REMARK  139  A    between atoms: _339  and  _340
REMARK  140  A    between atoms: _339  and  _342
REMARK  141  A    between atoms: _342  and  _343
REMARK  142  A    between atoms: _349  and  _351
REMARK  143  A    between atoms: _351  and  _352
REMARK  144  A    between atoms: _351  and  _354
REMARK  145  A    between atoms: _354  and  _355
REMARK  146  A    between atoms: _365  and  _367
REMARK  147  A    between atoms: _367  and  _368
REMARK  148  A    between atoms: _367  and  _370
REMARK  149  A    between atoms: _370  and  _371
REMARK  150  A    between atoms: _374  and  _376
REMARK  151  A    between atoms: _376  and  _377
REMARK  152  A    between atoms: _380  and  _382
REMARK  153  A    between atoms: _382  and  _383
REMARK  154  A    between atoms: _382  and  _385
REMARK  155  A    between atoms: _385  and  _386
REMARK  156  A    between atoms: _389  and  _391
REMARK  157  A    between atoms: _391  and  _392
REMARK  158  A    between atoms: _391  and  _394
REMARK  159  A    between atoms: _394  and  _395
REMARK  160  A    between atoms: _398  and  _400
REMARK  161  A    between atoms: _400  and  _401
REMARK  162  A    between atoms: _403  and  _405
REMARK  163  A    between atoms: _405  and  _406
REMARK  164  A    between atoms: _405  and  _408
REMARK  165  A    between atoms: _408  and  _409
REMARK  166  A    between atoms: _412  and  _414
REMARK  167  A    between atoms: _414  and  _415
REMARK  168  A    between atoms: _414  and  _417
REMARK  169  A    between atoms: _417  and  _418
REMARK  170  A    between atoms: _421  and  _423
REMARK  171  A    between atoms: _423  and  _424
REMARK  172  A    between atoms: _423  and  _426
REMARK  173  A    between atoms: _426  and  _427
REMARK  174  A    between atoms: _430  and  _432
REMARK  175  A    between atoms: _432  and  _433
REMARK  176  A    between atoms: _432  and  _435
REMARK  177  A    between atoms: _435  and  _436
REMARK  178  A    between atoms: _439  and  _441
REMARK  179  A    between atoms: _441  and  _442
REMARK  180  A    between atoms: _441  and  _444
REMARK  181  A    between atoms: _444  and  _445
REMARK  182  A    between atoms: _448  and  _450
REMARK  183  A    between atoms: _450  and  _451
REMARK  184  A    between atoms: _454  and  _456
REMARK  185  A    between atoms: _456  and  _457
REMARK  186  A    between atoms: _459  and  _461
REMARK  187  A    between atoms: _461  and  _462
REMARK  188  A    between atoms: _464  and  _466
REMARK  189  A    between atoms: _466  and  _467
REMARK  190  A    between atoms: _466  and  _469
REMARK  191  A    between atoms: _469  and  _470
REMARK  192  A    between atoms: _475  and  _476
REMARK  193  A    between atoms: _479  and  _480
REMARK  194  A    between atoms: _485  and  _487
REMARK  195  A    between atoms: _487  and  _488
REMARK  196  A    between atoms: _487  and  _490
REMARK  197  A    between atoms: _490  and  _491
REMARK  198  A    between atoms: _493  and  _495
REMARK  199  A    between atoms: _495  and  _496
REMARK  200  A    between atoms: _495  and  _498
REMARK  201  A    between atoms: _498  and  _499
REMARK  202  A    between atoms: _502  and  _504
REMARK  203  A    between atoms: _504  and  _505
REMARK  204  A    between atoms: _507  and  _509
REMARK  205  A    between atoms: _509  and  _510
REMARK  206  A    between atoms: _509  and  _512
REMARK  207  A    between atoms: _512  and  _513
REMARK  208  A    between atoms: _513  and  _514
REMARK  209  A    between atoms: _519  and  _521
REMARK  210  A    between atoms: _521  and  _522
REMARK  211  A    between atoms: _521  and  _524
REMARK  212  A    between atoms: _524  and  _525
REMARK  213  A    between atoms: _527  and  _529
REMARK  214  A    between atoms: _529  and  _530
REMARK  215  A    between atoms: _529  and  _532
REMARK  216  A    between atoms: _532  and  _533
REMARK  217  A    between atoms: _538  and  _540
REMARK  218  A    between atoms: _540  and  _541
REMARK  219  A    between atoms: _540  and  _543
REMARK  220  A    between atoms: _543  and  _544
REMARK  221  A    between atoms: _546  and  _548
REMARK  222  A    between atoms: _548  and  _549
REMARK  223  A    between atoms: _548  and  _551
REMARK  224  A    between atoms: _551  and  _552
REMARK  225  A    between atoms: _555  and  _557
REMARK  226  A    between atoms: _557  and  _558
REMARK  227  A    between atoms: _557  and  _560
REMARK  228  A    between atoms: _560  and  _561
REMARK  229  A    between atoms: _567  and  _569
REMARK  230  A    between atoms: _569  and  _570
REMARK  231  A    between atoms: _569  and  _572
REMARK  232  A    between atoms: _572  and  _573
REMARK  233  A    between atoms: _575  and  _577
REMARK  234  A    between atoms: _577  and  _578
REMARK  235  A    between atoms: _577  and  _580
REMARK  236  A    between atoms: _580  and  _581
REMARK  237  A    between atoms: _584  and  _586
REMARK  238  A    between atoms: _586  and  _587
REMARK  239  A    between atoms: _586  and  _589
REMARK  240  A    between atoms: _589  and  _590
REMARK  241  A    between atoms: _596  and  _598
REMARK  242  A    between atoms: _598  and  _599
REMARK  243  A    between atoms: _601  and  _603
REMARK  244  A    between atoms: _603  and  _604
REMARK  245  A    between atoms: _603  and  _606
REMARK  246  A    between atoms: _606  and  _607
REMARK                            x       y       z     vdW  Elec       q    Type
REMARK                         _______ _______ _______ _____ _____    ______ ____
ROOT
ATOM      1  CA  ILE A   1      16.481  13.956  32.560  0.00  0.00    +0.101 C 
ENDROOT
BRANCH   1   2
ATOM      2  N   ILE A   1      15.153  13.287  32.453  0.00  0.00    -0.244 NA
ATOM      3  H   ILE A   1      14.764  12.949  31.550  0.00  0.00    +0.141 HD
ENDBRANCH   1   2
BRANCH   1   4
ATOM      4  C   ILE A   1      16.363  15.463  32.783  0.00  0.00    +0.199 C 
ATOM      5  O   ILE A   1      17.426  16.012  33.062  0.00  0.00    -0.219 OA
ENDBRANCH   1   4
BRANCH   1   6
ATOM      6  CB  ILE A   1      17.514  13.776  31.394  0.00  0.00    +0.018 C 
ATOM      7  CG2 ILE A   1      18.642  12.748  31.503  0.00  0.00    +0.002 C 
BRANCH   6   8
ATOM      8  CG1 ILE A   1      16.719  13.821  30.084  0.00  0.00    +0.001 C 
ATOM      9  CD1 ILE A   1      16.806  15.242  29.581  0.00  0.00    +0.000 C 
ENDBRANCH   6   8
ENDBRANCH   1   6
TORSDOF 4
REMARK  Name = ../refined-set-2016/1ppl/1ppl_pocket.pdb
REMARK  246 active torsions:
REMARK  status: ('A' for Active; 'I' for Inactive)
REMARK    1  A    between atoms: _1  and  _3
REMARK    2  A    between atoms: _3  and  _4
REMARK    3  A    between atoms: _3  and  _6
REMARK    4  A    between atoms: _6  and  _7
REMARK    5  A    between atoms: _10  and  _12
REMARK    6  A    between atoms: _12  and  _13
REMARK    7  A    between atoms: _16  and  _18
REMARK    8  A    between atoms: _18  and  _19
REMARK    9  A    between atoms: _18  and  _21
REMARK   10  A    between atoms: _21  and  _22
REMARK   11  A    between atoms: _27  and  _29
REMARK   12  A    between atoms: _29  and  _30
REMARK   13  A    between atoms: _29  and  _32
REMARK   14  A    between atoms: _32  and  _33
REMARK   15  A    between atoms: _36  and  _38
REMARK   16  A    between atoms: _38  and  _39
REMARK   17  A    between atoms: _38  and  _41
REMARK   18  A    between atoms: _41  and  _42
REMARK   19  A    between atoms: _42  and  _43
REMARK   20  A    between atoms: _46  and  _48
REMARK   21  A    between atoms: _48  and  _49
REMARK   22  A    between atoms: _48  and  _51
REMARK   23  A    between atoms: _51  and  _52
REMARK   24  A    between atoms: _52  and  _53
REMARK   25  A    between atoms: _56  and  _58
REMARK   26  A    between atoms: _58  and  _59
REMARK   27  A    between atoms: _58  and  _61
REMARK   28  A    between atoms: _61  and  _62
REMARK   29  A    between atoms: _67  and  _68
REMARK   30  A    between atoms: _70  and  _72
REMARK   31  A    between atoms: _72  and  _73
REMARK   32  A    between atoms: _72  and  _75
REMARK   33  A    between atoms: _75  and  _76
REMARK   34  A    between atoms: _81  and  _83
REMARK   35  A    between atoms: _83  and  _84
REMARK   36  A    between atoms: _83  and  _86
REMARK   37  A    between atoms: _86  and  _87
REMARK   38  A    between atoms: _93  and  _95
REMARK   39  A    between atoms: _95  and  _96
REMARK   40  A    between atoms: _95  and  _98
REMARK   41  A    between atoms: _98  and  _99
REMARK   42  A    between atoms: _102  and  _104
REMARK   43  A    between atoms: _104  and  _105
REMARK   44  A    between atoms: _104  and  _107
REMARK   45  A    between atoms: _107  and  _108
REMARK   46  A    between atoms: _111  and  _113
REMARK   47  A    between atoms: _113  and  _114
REMARK   48  A    between atoms: _116  and  _118
REMARK   49  A    between atoms: _118  and  _119
REMARK   50  A    between atoms: _118  and  _121
REMARK   51  A    between atoms: _121  and  _122
REMARK   52  A    between atoms: _124  and  _126
REMARK   53  A    between atoms: _126  and  _127
REMARK   54  A    between atoms: _130  and  _132
REMARK   55  A    between atoms: _132  and  _133
REMARK   56  A    between atoms: _132  and  _135
REMARK   57  A    between atoms: _135  and  _136
REMARK   58  A    between atoms: _139  and  _141
REMARK   59  A    between atoms: _141  and  _142
REMARK   60  A    between atoms: _141  and  _144
REMARK   61  A    between atoms: _144  and  _145
REMARK   62  A    between atoms: _155  and  _157
REMARK   63  A    between atoms: _157  and  _158
REMARK   64  A    between atoms: _157  and  _160
REMARK   65  A    between atoms: _160  and  _161
REMARK   66  A    between atoms: _164  and  _166
REMARK   67  A    between atoms: _166  and  _167
REMARK   68  A    between atoms: _166  and  _169
REMARK   69  A    between atoms: _169  and  _170
REMARK   70  A    between atoms: _172  and  _174
REMARK   71  A    between atoms: _174  and  _175
REMARK   72  A    between atoms: _174  and  _177
REMARK   73  A    between atoms: _177  and  _178
REMARK   74  A    between atoms: _183  and  _184
REMARK   75  A    between atoms: _186  and  _188
REMARK   76  A    between atoms: _188  and  _189
REMARK   77  A    between atoms: _191  and  _193
REMARK   78  A    between atoms: _193  and  _194
REMARK   79  A    between atoms: _193  and  _196
REMARK   80  A    between atoms: _196  and  _197
REMARK   81  A    between atoms: _200  and  _202
REMARK   82  A    between atoms: _202  and  _203
REMARK   83  A    between atoms: _205  and  _207
REMARK   84  A    between atoms: _207  and  _208
REMARK   85  A    between atoms: _207  and  _210
REMARK   86  A    between atoms: _210  and  _211
REMARK   87  A    between atoms: _213  and  _215
REMARK   88  A    between atoms: _215  and  _216
REMARK   89  A    between atoms: _215  and  _218
REMARK   90  A    between atoms: _218  and  _219
REMARK   91  A    between atoms: _221  and  _223
REMARK   92  A    between atoms: _223  and  _224
REMARK   93  A    between atoms: _223  and  _226
REMARK   94  A    between atoms: _226  and  _227
REMARK   95  A    between atoms: _227  and  _228
REMARK   96  A    between atoms: _233  and  _235
REMARK   97  A    between atoms: _235  and  _236
REMARK   98  A    between atoms: _235  and  _238
REMARK   99  A    between atoms: _238  and  _239
REMARK  100  A    between atoms: _245  and  _247
REMARK  101  A    between atoms: _247  and  _248
REMARK  102  A    between atoms: _247  and  _250
REMARK  103  A    between atoms: _250  and  _251
REMARK  104  A    between atoms: _254  and  _256
REMARK  105  A    between atoms: _256  and  _257
REMARK  106  A    between atoms: _256  and  _259
REMARK  107  A    between atoms: _259  and  _260
REMARK  108  A    between atoms: _265  and  _267
REMARK  109  A    between atoms: _267  and  _268
REMARK  110  A    between atoms: _267  and  _270
REMARK  111  A    between atoms: _270  and  _271
REMARK  112  A    between atoms: _276  and  _278
REMARK  113  A    between atoms: _278  and  _279
REMARK  114  A    between atoms: _281  and  _283
REMARK  115  A    between atoms: _283  and  _284
REMARK  116  A    between atoms: _283  and  _286
REMARK  117  A    between atoms: _286  and  _287
REMARK  118  A    between atoms: _290  and  _292
REMARK  119  A    between atoms: _292  and  _293
REMARK  120  A    between atoms: _292  and  _295
REMARK  121  A    between atoms: _295  and  _296
REMARK  122  A    between atoms: _299  and  _301
REMARK  123  A    between atoms: _301  and  _302
REMARK  124  A    between atoms: _304  and  _306
REMARK  125  A    between atoms: _306  and  _307
REMARK  126  A    between atoms: _306  and  _309
REMARK  127  A    between atoms: _309  and  _310
REMARK  128  A    between atoms: _313  and  _315
REMARK  129  A    between atoms: _315  and  _316
REMARK  130  A    between atoms: _319  and  _321
REMARK  131  A    between atoms: _321  and  _322
REMARK  132  A    between atoms: _321  and  _324
REMARK  133  A    between atoms: _324  and  _325
REMARK  134  A    between atoms: _328  and  _330
REMARK  135  A    between atoms: _330  and  _331
REMARK  136  A    between atoms: _330  and  _333
REMARK  137  A    between atoms: _333  and  _334
REMARK  138  A    between atoms: _337  and  _339
REMARK  139  A    between atoms: _339  and  _340
REMARK  140  A    between atoms: _339  and  _342
REMARK  141  A    between atoms: _342  and  _343
REMARK  142  A    between atoms: _349  and  _351
REMARK  143  A    between atoms: _351  and  _352
REMARK  144  A    between atoms: _351  and  _354
REMARK  145  A    between atoms: _354  and  _355
REMARK  146  A    between atoms: _365  and  _367
REMARK  147  A    between atoms: _367  and  _368
REMARK  148  A    between atoms: _367  and  _370
REMARK  149  A    between atoms: _370  and  _371
REMARK  150  A    between atoms: _374  and  _376
REMARK  151  A    between atoms: _376  and  _377
REMARK  152  A    between atoms: _380  and  _382
REMARK  153  A    between atoms: _382  and  _383
REMARK  154  A    between atoms: _382  and  _385
REMARK  155  A    between atoms: _385  and  _386
REMARK  156  A    between atoms: _389  and  _391
REMARK  157  A    between atoms: _391  and  _392
REMARK  158  A    between atoms: _391  and  _394
REMARK  159  A    between atoms: _394  and  _395
REMARK  160  A    between atoms: _398  and  _400
REMARK  161  A    between atoms: _400  and  _401
REMARK  162  A    between atoms: _403  and  _405
REMARK  163  A    between atoms: _405  and  _406
REMARK  164  A    between atoms: _405  and  _408
REMARK  165  A    between atoms: _408  and  _409
REMARK  166  A    between atoms: _412  and  _414
REMARK  167  A    between atoms: _414  and  _415
REMARK  168  A    between atoms: _414  and  _417
REMARK  169  A    between atoms: _417  and  _418
REMARK  170  A    between atoms: _421  and  _423
REMARK  171  A    between atoms: _423  and  _424
REMARK  172  A    between atoms: _423  and  _426
REMARK  173  A    between atoms: _426  and  _427
REMARK  174  A    between atoms: _430  and  _432
REMARK  175  A    between atoms: _432  and  _433
REMARK  176  A    between atoms: _432  and  _435
REMARK  177  A    between atoms: _435  and  _436
REMARK  178  A    between atoms: _439  and  _441
REMARK  179  A    between atoms: _441  and  _442
REMARK  180  A    between atoms: _441  and  _444
REMARK  181  A    between atoms: _444  and  _445
REMARK  182  A    between atoms: _448  and  _450
REMARK  183  A    between atoms: _450  and  _451
REMARK  184  A    between atoms: _454  and  _456
REMARK  185  A    between atoms: _456  and  _457
REMARK  186  A    between atoms: _459  and  _461
REMARK  187  A    between atoms: _461  and  _462
REMARK  188  A    between atoms: _464  and  _466
REMARK  189  A    between atoms: _466  and  _467
REMARK  190  A    between atoms: _466  and  _469
REMARK  191  A    between atoms: _469  and  _470
REMARK  192  A    between atoms: _475  and  _476
REMARK  193  A    between atoms: _479  and  _480
REMARK  194  A    between atoms: _485  and  _487
REMARK  195  A    between atoms: _487  and  _488
REMARK  196  A    between atoms: _487  and  _490
REMARK  197  A    between atoms: _490  and  _491
REMARK  198  A    between atoms: _493  and  _495
REMARK  199  A    between atoms: _495  and  _496
REMARK  200  A    between atoms: _495  and  _498
REMARK  201  A    between atoms: _498  and  _499
REMARK  202  A    between atoms: _502  and  _504
REMARK  203  A    between atoms: _504  and  _505
REMARK  204  A    between atoms: _507  and  _509
REMARK  205  A    between atoms: _509  and  _510
REMARK  206  A    between atoms: _509  and  _512
REMARK  207  A    between atoms: _512  and  _513
REMARK  208  A    between atoms: _513  and  _514
REMARK  209  A    between atoms: _519  and  _521
REMARK  210  A    between atoms: _521  and  _522
REMARK  211  A    between atoms: _521  and  _524
REMARK  212  A    between atoms: _524  and  _525
REMARK  213  A    between atoms: _527  and  _529
REMARK  214  A    between atoms: _529  and  _530
REMARK  215  A    between atoms: _529  and  _532
REMARK  216  A    between atoms: _532  and  _533
REMARK  217  A    between atoms: _538  and  _540
REMARK  218  A    between atoms: _540  and  _541
REMARK  219  A    between atoms: _540  and  _543
REMARK  220  A    between atoms: _543  and  _544
REMARK  221  A    between atoms: _546  and  _548
REMARK  222  A    between atoms: _548  and  _549
REMARK  223  A    between atoms: _548  and  _551
REMARK  224  A    between atoms: _551  and  _552
REMARK  225  A    between atoms: _555  and  _557
REMARK  226  A    between atoms: _557  and  _558
REMARK  227  A    between atoms: _557  and  _560
REMARK  228  A    between atoms: _560  and  _561
REMARK  229  A    between atoms: _567  and  _569
REMARK  230  A    between atoms: _569  and  _570
REMARK  231  A    between atoms: _569  and  _572
REMARK  232  A    between atoms: _572  and  _573
REMARK  233  A    between atoms: _575  and  _577
REMARK  234  A    between atoms: _577  and  _578
REMARK  235  A    between atoms: _577  and  _580
REMARK  236  A    between atoms: _580  and  _581
REMARK  237  A    between atoms: _584  and  _586
REMARK  238  A    between atoms: _586  and  _587
REMARK  239  A    between atoms: _586  and  _589
REMARK  240  A    between atoms: _589  and  _590
REMARK  241  A    between atoms: _596  and  _598
REMARK  242  A    between atoms: _598  and  _599
REMARK  243  A    between atoms: _601  and  _603
REMARK  244  A    between atoms: _603  and  _604
REMARK  245  A    between atoms: _603  and  _606
REMARK  246  A    between atoms: _606  and  _607
REMARK                            x       y       z     vdW  Elec       q    Type
REMARK                         _______ _______ _______ _____ _____    ______ ____
ROOT
ATOM      1  C   ILE A   3      15.002  16.493  21.838  0.00  0.00    +0.241 C 
ATOM      2  O   ILE A   3      14.042  15.687  21.604  0.00  0.00    -0.273 OA
ATOM      3  N   PHE A   4      15.392  17.577  21.141  0.00  0.00    -0.297 N 
ATOM      4  H   PHE A   4      16.149  18.210  21.470  0.00  0.00    +0.150 HD
ENDROOT
BRANCH   1   5
ATOM      5  CA  ILE A   3      15.753  16.360  23.195  0.00  0.00    +0.149 C 
BRANCH   5   8
ATOM      6  C   SER A   2      14.961  17.739  25.044  0.00  0.00    +0.243 C 
ATOM      7  O   SER A   2      16.019  18.443  24.939  0.00  0.00    -0.273 OA
ATOM      8  N   ILE A   3      14.777  16.699  24.259  0.00  0.00    -0.297 N 
ATOM      9  H   ILE A   3      13.933  16.105  24.387  0.00  0.00    +0.150 HD
BRANCH   6  10
ATOM     10  CA  SER A   2      13.892  17.907  26.116  0.00  0.00    +0.178 C 
BRANCH  10  13
ATOM     11  C   PHE A   1      14.920  18.030  28.278  0.00  0.00    +0.239 C 
ATOM     12  O   PHE A   1      14.981  16.787  28.408  0.00  0.00    -0.274 OA
ATOM     13  N   SER A   2      14.516  18.707  27.239  0.00  0.00    -0.295 N 
ATOM     14  H   SER A   2      14.617  19.741  27.185  0.00  0.00    +0.150 HD
BRANCH  11  15
ATOM     15  CA  PHE A   1      15.453  18.904  29.423  0.00  0.00    +0.149 C 
BRANCH  15  16
ATOM     16  N   PHE A   1      15.448  18.036  30.613  0.00  0.00    -0.238 NA
ATOM     17  H   PHE A   1      15.533  17.007  30.492  0.00  0.00    +0.142 HD
ENDBRANCH  15  16
BRANCH  15  18
ATOM     18  CB  PHE A   1      16.796  19.595  29.243  0.00  0.00    +0.053 C 
BRANCH  18  19
ATOM     19  CG  PHE A   1      17.944  18.601  29.082  0.00  0.00    -0.020 A 
ATOM     20  CD2 PHE A   1      18.657  18.244  30.247  0.00  0.00    -0.004 A 
ATOM     21  CE2 PHE A   1      19.734  17.371  30.161  0.00  0.00    -0.000 A 
ATOM     22  CZ  PHE A   1      20.071  16.784  28.992  0.00  0.00    -0.000 A 
ATOM     23  CE1 PHE A   1      19.327  17.123  27.825  0.00  0.00    -0.000 A 
ATOM     24  CD1 PHE A   1      18.282  18.044  27.879  0.00  0.00    -0.004 A 
ENDBRANCH  18  19
ENDBRANCH  15  18
ENDBRANCH  11  15
ENDBRANCH  10  13
BRANCH  10  25
ATOM     25  CB  SER A   2      12.599  18.555  25.576  0.00  0.00    +0.166 C 
BRANCH  25  26
ATOM     26  OG  SER A   2      11.685  18.518  26.655  0.00  0.00    -0.380 OA
ATOM     27  H   SER A   2      12.056  19.028  27.418  0.00  0.00    +0.211 HD
ENDBRANCH  25  26
ENDBRANCH  10  25
ENDBRANCH   6  10
ENDBRANCH   5   8
BRANCH   5  28
ATOM     28  CB  ILE A   3      16.327  14.940  23.389  0.00  0.00    +0.027 C 
ATOM     29  CG2 ILE A   3      17.332  14.654  22.184  0.00  0.00    +0.002 C 
BRANCH  28  30
ATOM     30  CG1 ILE A   3      17.208  14.700  24.679  0.00  0.00    +0.002 C 
ATOM     31  CD1 ILE A   3      16.413  14.398  25.915  0.00  0.00    +0.000 C 
ENDBRANCH  28  30
ENDBRANCH   5  28
ENDBRANCH   1   5
BRANCH   3  32
ATOM     32  CA  PHE A   4      14.655  17.804  19.857  0.00  0.00    +0.153 C 
BRANCH  32  33
ATOM     33  C   PHE A   4      15.436  17.009  18.828  0.00  0.00    +0.241 C 
ATOM     34  N   GLY A   5      15.068  15.712  18.746  0.00  0.00    -0.295 N 
ATOM     35  H   GLY A   5      14.312  15.342  19.357  0.00  0.00    +0.150 HD
ATOM     36  O   PHE A   4      16.365  17.555  18.149  0.00  0.00    -0.273 OA
BRANCH  34  37
ATOM     37  CA  GLY A   5      15.744  14.828  17.786  0.00  0.00    +0.176 C 
BRANCH  37  38
ATOM     38  C   GLY A   5      15.142  14.854  16.389  0.00  0.00    +0.243 C 
ATOM     39  O   GLY A   5      14.459  15.796  15.958  0.00  0.00    -0.273 OA
ATOM     40  N   ASP A   6      15.442  13.839  15.608  0.00  0.00    -0.301 N 
ATOM     41  H   ASP A   6      15.886  13.007  16.046  0.00  0.00    +0.150 HD
BRANCH  40  42
ATOM     42  CA  ASP A   6      15.196  13.798  14.172  0.00  0.00    +0.116 C 
BRANCH  42  43
ATOM     43  C   ASP A   6      13.675  14.019  13.830  0.00  0.00    +0.202 C 
ATOM     44  O   ASP A   6      13.496  14.596  12.760  0.00  0.00    -0.219 OA
ENDBRANCH  42  43
BRANCH  42  45
ATOM     45  CB  ASP A   6      15.741  12.532  13.484  0.00  0.00    +0.136 C 
BRANCH  45  46
ATOM     46  CG  ASP A   6      17.285  12.391  13.699  0.00  0.00    +0.367 C 
ATOM     47  OD2 ASP A   6      17.957  13.415  13.879  0.00  0.00    -0.246 OA
ATOM     48  OD1 ASP A   6      17.756  11.323  13.610  0.00  0.00    -0.246 OA
ENDBRANCH  45  46
ENDBRANCH  42  45
ENDBRANCH  40  42
ENDBRANCH  37  38
ENDBRANCH  34  37
ENDBRANCH  32  33
BRANCH  32  49
ATOM     49  CB  PHE A   4      14.704  19.299  19.587  0.00  0.00    +0.055 C 
BRANCH  49  50
ATOM     50  CG  PHE A   4      13.676  20.050  20.417  0.00  0.00    -0.020 A 
ATOM     51  CD2 PHE A   4      14.062  20.608  21.593  0.00  0.00    -0.004 A 
ATOM     52  CE2 PHE A   4      13.195  21.378  22.380  0.00  0.00    -0.000 A 
ATOM     53  CZ  PHE A   4      11.915  21.501  21.990  0.00  0.00    -0.000 A 
ATOM     54  CE1 PHE A   4      11.446  20.900  20.818  0.00  0.00    -0.000 A 
ATOM     55  CD1 PHE A   4      12.379  20.255  19.944  0.00  0.00    -0.004 A 
ENDBRANCH  49  50
ENDBRANCH  32  49
ENDBRANCH   3  32
TORSDOF 22
REMARK  Name = ../refined-set-2016/1ppl/1ppl_pocket.pdb
REMARK  246 active torsions:
REMARK  status: ('A' for Active; 'I' for Inactive)
REMARK    1  A    between atoms: _1  and  _3
REMARK    2  A    between atoms: _3  and  _4
REMARK    3  A    between atoms: _3  and  _6
REMARK    4  A    between atoms: _6  and  _7
REMARK    5  A    between atoms: _10  and  _12
REMARK    6  A    between atoms: _12  and  _13
REMARK    7  A    between atoms: _16  and  _18
REMARK    8  A    between atoms: _18  and  _19
REMARK    9  A    between atoms: _18  and  _21
REMARK   10  A    between atoms: _21  and  _22
REMARK   11  A    between atoms: _27  and  _29
REMARK   12  A    between atoms: _29  and  _30
REMARK   13  A    between atoms: _29  and  _32
REMARK   14  A    between atoms: _32  and  _33
REMARK   15  A    between atoms: _36  and  _38
REMARK   16  A    between atoms: _38  and  _39
REMARK   17  A    between atoms: _38  and  _41
REMARK   18  A    between atoms: _41  and  _42
REMARK   19  A    between atoms: _42  and  _43
REMARK   20  A    between atoms: _46  and  _48
REMARK   21  A    between atoms: _48  and  _49
REMARK   22  A    between atoms: _48  and  _51
REMARK   23  A    between atoms: _51  and  _52
REMARK   24  A    between atoms: _52  and  _53
REMARK   25  A    between atoms: _56  and  _58
REMARK   26  A    between atoms: _58  and  _59
REMARK   27  A    between atoms: _58  and  _61
REMARK   28  A    between atoms: _61  and  _62
REMARK   29  A    between atoms: _67  and  _68
REMARK   30  A    between atoms: _70  and  _72
REMARK   31  A    between atoms: _72  and  _73
REMARK   32  A    between atoms: _72  and  _75
REMARK   33  A    between atoms: _75  and  _76
REMARK   34  A    between atoms: _81  and  _83
REMARK   35  A    between atoms: _83  and  _84
REMARK   36  A    between atoms: _83  and  _86
REMARK   37  A    between atoms: _86  and  _87
REMARK   38  A    between atoms: _93  and  _95
REMARK   39  A    between atoms: _95  and  _96
REMARK   40  A    between atoms: _95  and  _98
REMARK   41  A    between atoms: _98  and  _99
REMARK   42  A    between atoms: _102  and  _104
REMARK   43  A    between atoms: _104  and  _105
REMARK   44  A    between atoms: _104  and  _107
REMARK   45  A    between atoms: _107  and  _108
REMARK   46  A    between atoms: _111  and  _113
REMARK   47  A    between atoms: _113  and  _114
REMARK   48  A    between atoms: _116  and  _118
REMARK   49  A    between atoms: _118  and  _119
REMARK   50  A    between atoms: _118  and  _121
REMARK   51  A    between atoms: _121  and  _122
REMARK   52  A    between atoms: _124  and  _126
REMARK   53  A    between atoms: _126  and  _127
REMARK   54  A    between atoms: _130  and  _132
REMARK   55  A    between atoms: _132  and  _133
REMARK   56  A    between atoms: _132  and  _135
REMARK   57  A    between atoms: _135  and  _136
REMARK   58  A    between atoms: _139  and  _141
REMARK   59  A    between atoms: _141  and  _142
REMARK   60  A    between atoms: _141  and  _144
REMARK   61  A    between atoms: _144  and  _145
REMARK   62  A    between atoms: _155  and  _157
REMARK   63  A    between atoms: _157  and  _158
REMARK   64  A    between atoms: _157  and  _160
REMARK   65  A    between atoms: _160  and  _161
REMARK   66  A    between atoms: _164  and  _166
REMARK   67  A    between atoms: _166  and  _167
REMARK   68  A    between atoms: _166  and  _169
REMARK   69  A    between atoms: _169  and  _170
REMARK   70  A    between atoms: _172  and  _174
REMARK   71  A    between atoms: _174  and  _175
REMARK   72  A    between atoms: _174  and  _177
REMARK   73  A    between atoms: _177  and  _178
REMARK   74  A    between atoms: _183  and  _184
REMARK   75  A    between atoms: _186  and  _188
REMARK   76  A    between atoms: _188  and  _189
REMARK   77  A    between atoms: _191  and  _193
REMARK   78  A    between atoms: _193  and  _194
REMARK   79  A    between atoms: _193  and  _196
REMARK   80  A    between atoms: _196  and  _197
REMARK   81  A    between atoms: _200  and  _202
REMARK   82  A    between atoms: _202  and  _203
REMARK   83  A    between atoms: _205  and  _207
REMARK   84  A    between atoms: _207  and  _208
REMARK   85  A    between atoms: _207  and  _210
REMARK   86  A    between atoms: _210  and  _211
REMARK   87  A    between atoms: _213  and  _215
REMARK   88  A    between atoms: _215  and  _216
REMARK   89  A    between atoms: _215  and  _218
REMARK   90  A    between atoms: _218  and  _219
REMARK   91  A    between atoms: _221  and  _223
REMARK   92  A    between atoms: _223  and  _224
REMARK   93  A    between atoms: _223  and  _226
REMARK   94  A    between atoms: _226  and  _227
REMARK   95  A    between atoms: _227  and  _228
REMARK   96  A    between atoms: _233  and  _235
REMARK   97  A    between atoms: _235  and  _236
REMARK   98  A    between atoms: _235  and  _238
REMARK   99  A    between atoms: _238  and  _239
REMARK  100  A    between atoms: _245  and  _247
REMARK  101  A    between atoms: _247  and  _248
REMARK  102  A    between atoms: _247  and  _250
REMARK  103  A    between atoms: _250  and  _251
REMARK  104  A    between atoms: _254  and  _256
REMARK  105  A    between atoms: _256  and  _257
REMARK  106  A    between atoms: _256  and  _259
REMARK  107  A    between atoms: _259  and  _260
REMARK  108  A    between atoms: _265  and  _267
REMARK  109  A    between atoms: _267  and  _268
REMARK  110  A    between atoms: _267  and  _270
REMARK  111  A    between atoms: _270  and  _271
REMARK  112  A    between atoms: _276  and  _278
REMARK  113  A    between atoms: _278  and  _279
REMARK  114  A    between atoms: _281  and  _283
REMARK  115  A    between atoms: _283  and  _284
REMARK  116  A    between atoms: _283  and  _286
REMARK  117  A    between atoms: _286  and  _287
REMARK  118  A    between atoms: _290  and  _292
REMARK  119  A    between atoms: _292  and  _293
REMARK  120  A    between atoms: _292  and  _295
REMARK  121  A    between atoms: _295  and  _296
REMARK  122  A    between atoms: _299  and  _301
REMARK  123  A    between atoms: _301  and  _302
REMARK  124  A    between atoms: _304  and  _306
REMARK  125  A    between atoms: _306  and  _307
REMARK  126  A    between atoms: _306  and  _309
REMARK  127  A    between atoms: _309  and  _310
REMARK  128  A    between atoms: _313  and  _315
REMARK  129  A    between atoms: _315  and  _316
REMARK  130  A    between atoms: _319  and  _321
REMARK  131  A    between atoms: _321  and  _322
REMARK  132  A    between atoms: _321  and  _324
REMARK  133  A    between atoms: _324  and  _325
REMARK  134  A    between atoms: _328  and  _330
REMARK  135  A    between atoms: _330  and  _331
REMARK  136  A    between atoms: _330  and  _333
REMARK  137  A    between atoms: _333  and  _334
REMARK  138  A    between atoms: _337  and  _339
REMARK  139  A    between atoms: _339  and  _340
REMARK  140  A    between atoms: _339  and  _342
REMARK  141  A    between atoms: _342  and  _343
REMARK  142  A    between atoms: _349  and  _351
REMARK  143  A    between atoms: _351  and  _352
REMARK  144  A    between atoms: _351  and  _354
REMARK  145  A    between atoms: _354  and  _355
REMARK  146  A    between atoms: _365  and  _367
REMARK  147  A    between atoms: _367  and  _368
REMARK  148  A    between atoms: _367  and  _370
REMARK  149  A    between atoms: _370  and  _371
REMARK  150  A    between atoms: _374  and  _376
REMARK  151  A    between atoms: _376  and  _377
REMARK  152  A    between atoms: _380  and  _382
REMARK  153  A    between atoms: _382  and  _383
REMARK  154  A    between atoms: _382  and  _385
REMARK  155  A    between atoms: _385  and  _386
REMARK  156  A    between atoms: _389  and  _391
REMARK  157  A    between atoms: _391  and  _392
REMARK  158  A    between atoms: _391  and  _394
REMARK  159  A    between atoms: _394  and  _395
REMARK  160  A    between atoms: _398  and  _400
REMARK  161  A    between atoms: _400  and  _401
REMARK  162  A    between atoms: _403  and  _405
REMARK  163  A    between atoms: _405  and  _406
REMARK  164  A    between atoms: _405  and  _408
REMARK  165  A    between atoms: _408  and  _409
REMARK  166  A    between atoms: _412  and  _414
REMARK  167  A    between atoms: _414  and  _415
REMARK  168  A    between atoms: _414  and  _417
REMARK  169  A    between atoms: _417  and  _418
REMARK  170  A    between atoms: _421  and  _423
REMARK  171  A    between atoms: _423  and  _424
REMARK  172  A    between atoms: _423  and  _426
REMARK  173  A    between atoms: _426  and  _427
REMARK  174  A    between atoms: _430  and  _432
REMARK  175  A    between atoms: _432  and  _433
REMARK  176  A    between atoms: _432  and  _435
REMARK  177  A    between atoms: _435  and  _436
REMARK  178  A    between atoms: _439  and  _441
REMARK  179  A    between atoms: _441  and  _442
REMARK  180  A    between atoms: _441  and  _444
REMARK  181  A    between atoms: _444  and  _445
REMARK  182  A    between atoms: _448  and  _450
REMARK  183  A    between atoms: _450  and  _451
REMARK  184  A    between atoms: _454  and  _456
REMARK  185  A    between atoms: _456  and  _457
REMARK  186  A    between atoms: _459  and  _461
REMARK  187  A    between atoms: _461  and  _462
REMARK  188  A    between atoms: _464  and  _466
REMARK  189  A    between atoms: _466  and  _467
REMARK  190  A    between atoms: _466  and  _469
REMARK  191  A    between atoms: _469  and  _470
REMARK  192  A    between atoms: _475  and  _476
REMARK  193  A    between atoms: _479  and  _480
REMARK  194  A    between atoms: _485  and  _487
REMARK  195  A    between atoms: _487  and  _488
REMARK  196  A    between atoms: _487  and  _490
REMARK  197  A    between atoms: _490  and  _491
REMARK  198  A    between atoms: _493  and  _495
REMARK  199  A    between atoms: _495  and  _496
REMARK  200  A    between atoms: _495  and  _498
REMARK  201  A    between atoms: _498  and  _499
REMARK  202  A    between atoms: _502  and  _504
REMARK  203  A    between atoms: _504  and  _505
REMARK  204  A    between atoms: _507  and  _509
REMARK  205  A    between atoms: _509  and  _510
REMARK  206  A    between atoms: _509  and  _512
REMARK  207  A    between atoms: _512  and  _513
REMARK  208  A    between atoms: _513  and  _514
REMARK  209  A    between atoms: _519  and  _521
REMARK  210  A    between atoms: _521  and  _522
REMARK  211  A    between atoms: _521  and  _524
REMARK  212  A    between atoms: _524  and  _525
REMARK  213  A    between atoms: _527  and  _529
REMARK  214  A    between atoms: _529  and  _530
REMARK  215  A    between atoms: _529  and  _532
REMARK  216  A    between atoms: _532  and  _533
REMARK  217  A    between atoms: _538  and  _540
REMARK  218  A    between atoms: _540  and  _541
REMARK  219  A    between atoms: _540  and  _543
REMARK  220  A    between atoms: _543  and  _544
REMARK  221  A    between atoms: _546  and  _548
REMARK  222  A    between atoms: _548  and  _549
REMARK  223  A    between atoms: _548  and  _551
REMARK  224  A    between atoms: _551  and  _552
REMARK  225  A    between atoms: _555  and  _557
REMARK  226  A    between atoms: _557  and  _558
REMARK  227  A    between atoms: _557  and  _560
REMARK  228  A    between atoms: _560  and  _561
REMARK  229  A    between atoms: _567  and  _569
REMARK  230  A    between atoms: _569  and  _570
REMARK  231  A    between atoms: _569  and  _572
REMARK  232  A    between atoms: _572  and  _573
REMARK  233  A    between atoms: _575  and  _577
REMARK  234  A    between atoms: _577  and  _578
REMARK  235  A    between atoms: _577  and  _580
REMARK  236  A    between atoms: _580  and  _581
REMARK  237  A    between atoms: _584  and  _586
REMARK  238  A    between atoms: _586  and  _587
REMARK  239  A    between atoms: _586  and  _589
REMARK  240  A    between atoms: _589  and  _590
REMARK  241  A    between atoms: _596  and  _598
REMARK  242  A    between atoms: _598  and  _599
REMARK  243  A    between atoms: _601  and  _603
REMARK  244  A    between atoms: _603  and  _604
REMARK  245  A    between atoms: _603  and  _606
REMARK  246  A    between atoms: _606  and  _607
REMARK                            x       y       z     vdW  Elec       q    Type
REMARK                         _______ _______ _______ _____ _____    ______ ____
ROOT
ATOM      1  O   HOH     1      22.996  19.908  21.033  0.00  0.00    +0.000 OA
ENDROOT
TORSDOF 0
REMARK  Name = ../refined-set-2016/1ppl/1ppl_pocket.pdb
REMARK  246 active torsions:
REMARK  status: ('A' for Active; 'I' for Inactive)
REMARK    1  A    between atoms: _1  and  _3
REMARK    2  A    between atoms: _3  and  _4
REMARK    3  A    between atoms: _3  and  _6
REMARK    4  A    between atoms: _6  and  _7
REMARK    5  A    between atoms: _10  and  _12
REMARK    6  A    between atoms: _12  and  _13
REMARK    7  A    between atoms: _16  and  _18
REMARK    8  A    between atoms: _18  and  _19
REMARK    9  A    between atoms: _18  and  _21
REMARK   10  A    between atoms: _21  and  _22
REMARK   11  A    between atoms: _27  and  _29
REMARK   12  A    between atoms: _29  and  _30
REMARK   13  A    between atoms: _29  and  _32
REMARK   14  A    between atoms: _32  and  _33
REMARK   15  A    between atoms: _36  and  _38
REMARK   16  A    between atoms: _38  and  _39
REMARK   17  A    between atoms: _38  and  _41
REMARK   18  A    between atoms: _41  and  _42
REMARK   19  A    between atoms: _42  and  _43
REMARK   20  A    between atoms: _46  and  _48
REMARK   21  A    between atoms: _48  and  _49
REMARK   22  A    between atoms: _48  and  _51
REMARK   23  A    between atoms: _51  and  _52
REMARK   24  A    between atoms: _52  and  _53
REMARK   25  A    between atoms: _56  and  _58
REMARK   26  A    between atoms: _58  and  _59
REMARK   27  A    between atoms: _58  and  _61
REMARK   28  A    between atoms: _61  and  _62
REMARK   29  A    between atoms: _67  and  _68
REMARK   30  A    between atoms: _70  and  _72
REMARK   31  A    between atoms: _72  and  _73
REMARK   32  A    between atoms: _72  and  _75
REMARK   33  A    between atoms: _75  and  _76
REMARK   34  A    between atoms: _81  and  _83
REMARK   35  A    between atoms: _83  and  _84
REMARK   36  A    between atoms: _83  and  _86
REMARK   37  A    between atoms: _86  and  _87
REMARK   38  A    between atoms: _93  and  _95
REMARK   39  A    between atoms: _95  and  _96
REMARK   40  A    between atoms: _95  and  _98
REMARK   41  A    between atoms: _98  and  _99
REMARK   42  A    between atoms: _102  and  _104
REMARK   43  A    between atoms: _104  and  _105
REMARK   44  A    between atoms: _104  and  _107
REMARK   45  A    between atoms: _107  and  _108
REMARK   46  A    between atoms: _111  and  _113
REMARK   47  A    between atoms: _113  and  _114
REMARK   48  A    between atoms: _116  and  _118
REMARK   49  A    between atoms: _118  and  _119
REMARK   50  A    between atoms: _118  and  _121
REMARK   51  A    between atoms: _121  and  _122
REMARK   52  A    between atoms: _124  and  _126
REMARK   53  A    between atoms: _126  and  _127
REMARK   54  A    between atoms: _130  and  _132
REMARK   55  A    between atoms: _132  and  _133
REMARK   56  A    between atoms: _132  and  _135
REMARK   57  A    between atoms: _135  and  _136
REMARK   58  A    between atoms: _139  and  _141
REMARK   59  A    between atoms: _141  and  _142
REMARK   60  A    between atoms: _141  and  _144
REMARK   61  A    between atoms: _144  and  _145
REMARK   62  A    between atoms: _155  and  _157
REMARK   63  A    between atoms: _157  and  _158
REMARK   64  A    between atoms: _157  and  _160
REMARK   65  A    between atoms: _160  and  _161
REMARK   66  A    between atoms: _164  and  _166
REMARK   67  A    between atoms: _166  and  _167
REMARK   68  A    between atoms: _166  and  _169
REMARK   69  A    between atoms: _169  and  _170
REMARK   70  A    between atoms: _172  and  _174
REMARK   71  A    between atoms: _174  and  _175
REMARK   72  A    between atoms: _174  and  _177
REMARK   73  A    between atoms: _177  and  _178
REMARK   74  A    between atoms: _183  and  _184
REMARK   75  A    between atoms: _186  and  _188
REMARK   76  A    between atoms: _188  and  _189
REMARK   77  A    between atoms: _191  and  _193
REMARK   78  A    between atoms: _193  and  _194
REMARK   79  A    between atoms: _193  and  _196
REMARK   80  A    between atoms: _196  and  _197
REMARK   81  A    between atoms: _200  and  _202
REMARK   82  A    between atoms: _202  and  _203
REMARK   83  A    between atoms: _205  and  _207
REMARK   84  A    between atoms: _207  and  _208
REMARK   85  A    between atoms: _207  and  _210
REMARK   86  A    between atoms: _210  and  _211
REMARK   87  A    between atoms: _213  and  _215
REMARK   88  A    between atoms: _215  and  _216
REMARK   89  A    between atoms: _215  and  _218
REMARK   90  A    between atoms: _218  and  _219
REMARK   91  A    between atoms: _221  and  _223
REMARK   92  A    between atoms: _223  and  _224
REMARK   93  A    between atoms: _223  and  _226
REMARK   94  A    between atoms: _226  and  _227
REMARK   95  A    between atoms: _227  and  _228
REMARK   96  A    between atoms: _233  and  _235
REMARK   97  A    between atoms: _235  and  _236
REMARK   98  A    between atoms: _235  and  _238
REMARK   99  A    between atoms: _238  and  _239
REMARK  100  A    between atoms: _245  and  _247
REMARK  101  A    between atoms: _247  and  _248
REMARK  102  A    between atoms: _247  and  _250
REMARK  103  A    between atoms: _250  and  _251
REMARK  104  A    between atoms: _254  and  _256
REMARK  105  A    between atoms: _256  and  _257
REMARK  106  A    between atoms: _256  and  _259
REMARK  107  A    between atoms: _259  and  _260
REMARK  108  A    between atoms: _265  and  _267
REMARK  109  A    between atoms: _267  and  _268
REMARK  110  A    between atoms: _267  and  _270
REMARK  111  A    between atoms: _270  and  _271
REMARK  112  A    between atoms: _276  and  _278
REMARK  113  A    between atoms: _278  and  _279
REMARK  114  A    between atoms: _281  and  _283
REMARK  115  A    between atoms: _283  and  _284
REMARK  116  A    between atoms: _283  and  _286
REMARK  117  A    between atoms: _286  and  _287
REMARK  118  A    between atoms: _290  and  _292
REMARK  119  A    between atoms: _292  and  _293
REMARK  120  A    between atoms: _292  and  _295
REMARK  121  A    between atoms: _295  and  _296
REMARK  122  A    between atoms: _299  and  _301
REMARK  123  A    between atoms: _301  and  _302
REMARK  124  A    between atoms: _304  and  _306
REMARK  125  A    between atoms: _306  and  _307
REMARK  126  A    between atoms: _306  and  _309
REMARK  127  A    between atoms: _309  and  _310
REMARK  128  A    between atoms: _313  and  _315
REMARK  129  A    between atoms: _315  and  _316
REMARK  130  A    between atoms: _319  and  _321
REMARK  131  A    between atoms: _321  and  _322
REMARK  132  A    between atoms: _321  and  _324
REMARK  133  A    between atoms: _324  and  _325
REMARK  134  A    between atoms: _328  and  _330
REMARK  135  A    between atoms: _330  and  _331
REMARK  136  A    between atoms: _330  and  _333
REMARK  137  A    between atoms: _333  and  _334
REMARK  138  A    between atoms: _337  and  _339
REMARK  139  A    between atoms: _339  and  _340
REMARK  140  A    between atoms: _339  and  _342
REMARK  141  A    between atoms: _342  and  _343
REMARK  142  A    between atoms: _349  and  _351
REMARK  143  A    between atoms: _351  and  _352
REMARK  144  A    between atoms: _351  and  _354
REMARK  145  A    between atoms: _354  and  _355
REMARK  146  A    between atoms: _365  and  _367
REMARK  147  A    between atoms: _367  and  _368
REMARK  148  A    between atoms: _367  and  _370
REMARK  149  A    between atoms: _370  and  _371
REMARK  150  A    between atoms: _374  and  _376
REMARK  151  A    between atoms: _376  and  _377
REMARK  152  A    between atoms: _380  and  _382
REMARK  153  A    between atoms: _382  and  _383
REMARK  154  A    between atoms: _382  and  _385
REMARK  155  A    between atoms: _385  and  _386
REMARK  156  A    between atoms: _389  and  _391
REMARK  157  A    between atoms: _391  and  _392
REMARK  158  A    between atoms: _391  and  _394
REMARK  159  A    between atoms: _394  and  _395
REMARK  160  A    between atoms: _398  and  _400
REMARK  161  A    between atoms: _400  and  _401
REMARK  162  A    between atoms: _403  and  _405
REMARK  163  A    between atoms: _405  and  _406
REMARK  164  A    between atoms: _405  and  _408
REMARK  165  A    between atoms: _408  and  _409
REMARK  166  A    between atoms: _412  and  _414
REMARK  167  A    between atoms: _414  and  _415
REMARK  168  A    between atoms: _414  and  _417
REMARK  169  A    between atoms: _417  and  _418
REMARK  170  A    between atoms: _421  and  _423
REMARK  171  A    between atoms: _423  and  _424
REMARK  172  A    between atoms: _423  and  _426
REMARK  173  A    between atoms: _426  and  _427
REMARK  174  A    between atoms: _430  and  _432
REMARK  175  A    between atoms: _432  and  _433
REMARK  176  A    between atoms: _432  and  _435
REMARK  177  A    between atoms: _435  and  _436
REMARK  178  A    between atoms: _439  and  _441
REMARK  179  A    between atoms: _441  and  _442
REMARK  180  A    between atoms: _441  and  _444
REMARK  181  A    between atoms: _444  and  _445
REMARK  182  A    between atoms: _448  and  _450
REMARK  183  A    between atoms: _450  and  _451
REMARK  184  A    between atoms: _454  and  _456
REMARK  185  A    between atoms: _456  and  _457
REMARK  186  A    between atoms: _459  and  _461
REMARK  187  A    between atoms: _461  and  _462
REMARK  188  A    between atoms: _464  and  _466
REMARK  189  A    between atoms: _466  and  _467
REMARK  190  A    between atoms: _466  and  _469
REMARK  191  A    between atoms: _469  and  _470
REMARK  192  A    between atoms: _475  and  _476
REMARK  193  A    between atoms: _479  and  _480
REMARK  194  A    between atoms: _485  and  _487
REMARK  195  A    between atoms: _487  and  _488
REMARK  196  A    between atoms: _487  and  _490
REMARK  197  A    between atoms: _490  and  _491
REMARK  198  A    between atoms: _493  and  _495
REMARK  199  A    between atoms: _495  and  _496
REMARK  200  A    between atoms: _495  and  _498
REMARK  201  A    between atoms: _498  and  _499
REMARK  202  A    between atoms: _502  and  _504
REMARK  203  A    between atoms: _504  and  _505
REMARK  204  A    between atoms: _507  and  _509
REMARK  205  A    between atoms: _509  and  _510
REMARK  206  A    between atoms: _509  and  _512
REMARK  207  A    between atoms: _512  and  _513
REMARK  208  A    between atoms: _513  and  _514
REMARK  209  A    between atoms: _519  and  _521
REMARK  210  A    between atoms: _521  and  _522
REMARK  211  A    between atoms: _521  and  _524
REMARK  212  A    between atoms: _524  and  _525
REMARK  213  A    between atoms: _527  and  _529
REMARK  214  A    between atoms: _529  and  _530
REMARK  215  A    between atoms: _529  and  _532
REMARK  216  A    between atoms: _532  and  _533
REMARK  217  A    between atoms: _538  and  _540
REMARK  218  A    between atoms: _540  and  _541
REMARK  219  A    between atoms: _540  and  _543
REMARK  220  A    between atoms: _543  and  _544
REMARK  221  A    between atoms: _546  and  _548
REMARK  222  A    between atoms: _548  and  _549
REMARK  223  A    between atoms: _548  and  _551
REMARK  224  A    between atoms: _551  and  _552
REMARK  225  A    between atoms: _555  and  _557
REMARK  226  A    between atoms: _557  and  _558
REMARK  227  A    between atoms: _557  and  _560
REMARK  228  A    between atoms: _560  and  _561
REMARK  229  A    between atoms: _567  and  _569
REMARK  230  A    between atoms: _569  and  _570
REMARK  231  A    between atoms: _569  and  _572
REMARK  232  A    between atoms: _572  and  _573
REMARK  233  A    between atoms: _575  and  _577
REMARK  234  A    between atoms: _577  and  _578
REMARK  235  A    between atoms: _577  and  _580
REMARK  236  A    between atoms: _580  and  _581
REMARK  237  A    between atoms: _584  and  _586
REMARK  238  A    between atoms: _586  and  _587
REMARK  239  A    between atoms: _586  and  _589
REMARK  240  A    between atoms: _589  and  _590
REMARK  241  A    between atoms: _596  and  _598
REMARK  242  A    between atoms: _598  and  _599
REMARK  243  A    between atoms: _601  and  _603
REMARK  244  A    between atoms: _603  and  _604
REMARK  245  A    between atoms: _603  and  _606
REMARK  246  A    between atoms: _606  and  _607
REMARK                            x       y       z     vdW  Elec       q    Type
REMARK                         _______ _______ _______ _____ _____    ______ ____
ROOT
ATOM      1  O   HOH     1      13.471   9.819  12.791  0.00  0.00    +0.000 OA
ENDROOT
TORSDOF 0
REMARK  Name = ../refined-set-2016/1ppl/1ppl_pocket.pdb
REMARK  246 active torsions:
REMARK  status: ('A' for Active; 'I' for Inactive)
REMARK    1  A    between atoms: _1  and  _3
REMARK    2  A    between atoms: _3  and  _4
REMARK    3  A    between atoms: _3  and  _6
REMARK    4  A    between atoms: _6  and  _7
REMARK    5  A    between atoms: _10  and  _12
REMARK    6  A    between atoms: _12  and  _13
REMARK    7  A    between atoms: _16  and  _18
REMARK    8  A    between atoms: _18  and  _19
REMARK    9  A    between atoms: _18  and  _21
REMARK   10  A    between atoms: _21  and  _22
REMARK   11  A    between atoms: _27  and  _29
REMARK   12  A    between atoms: _29  and  _30
REMARK   13  A    between atoms: _29  and  _32
REMARK   14  A    between atoms: _32  and  _33
REMARK   15  A    between atoms: _36  and  _38
REMARK   16  A    between atoms: _38  and  _39
REMARK   17  A    between atoms: _38  and  _41
REMARK   18  A    between atoms: _41  and  _42
REMARK   19  A    between atoms: _42  and  _43
REMARK   20  A    between atoms: _46  and  _48
REMARK   21  A    between atoms: _48  and  _49
REMARK   22  A    between atoms: _48  and  _51
REMARK   23  A    between atoms: _51  and  _52
REMARK   24  A    between atoms: _52  and  _53
REMARK   25  A    between atoms: _56  and  _58
REMARK   26  A    between atoms: _58  and  _59
REMARK   27  A    between atoms: _58  and  _61
REMARK   28  A    between atoms: _61  and  _62
REMARK   29  A    between atoms: _67  and  _68
REMARK   30  A    between atoms: _70  and  _72
REMARK   31  A    between atoms: _72  and  _73
REMARK   32  A    between atoms: _72  and  _75
REMARK   33  A    between atoms: _75  and  _76
REMARK   34  A    between atoms: _81  and  _83
REMARK   35  A    between atoms: _83  and  _84
REMARK   36  A    between atoms: _83  and  _86
REMARK   37  A    between atoms: _86  and  _87
REMARK   38  A    between atoms: _93  and  _95
REMARK   39  A    between atoms: _95  and  _96
REMARK   40  A    between atoms: _95  and  _98
REMARK   41  A    between atoms: _98  and  _99
REMARK   42  A    between atoms: _102  and  _104
REMARK   43  A    between atoms: _104  and  _105
REMARK   44  A    between atoms: _104  and  _107
REMARK   45  A    between atoms: _107  and  _108
REMARK   46  A    between atoms: _111  and  _113
REMARK   47  A    between atoms: _113  and  _114
REMARK   48  A    between atoms: _116  and  _118
REMARK   49  A    between atoms: _118  and  _119
REMARK   50  A    between atoms: _118  and  _121
REMARK   51  A    between atoms: _121  and  _122
REMARK   52  A    between atoms: _124  and  _126
REMARK   53  A    between atoms: _126  and  _127
REMARK   54  A    between atoms: _130  and  _132
REMARK   55  A    between atoms: _132  and  _133
REMARK   56  A    between atoms: _132  and  _135
REMARK   57  A    between atoms: _135  and  _136
REMARK   58  A    between atoms: _139  and  _141
REMARK   59  A    between atoms: _141  and  _142
REMARK   60  A    between atoms: _141  and  _144
REMARK   61  A    between atoms: _144  and  _145
REMARK   62  A    between atoms: _155  and  _157
REMARK   63  A    between atoms: _157  and  _158
REMARK   64  A    between atoms: _157  and  _160
REMARK   65  A    between atoms: _160  and  _161
REMARK   66  A    between atoms: _164  and  _166
REMARK   67  A    between atoms: _166  and  _167
REMARK   68  A    between atoms: _166  and  _169
REMARK   69  A    between atoms: _169  and  _170
REMARK   70  A    between atoms: _172  and  _174
REMARK   71  A    between atoms: _174  and  _175
REMARK   72  A    between atoms: _174  and  _177
REMARK   73  A    between atoms: _177  and  _178
REMARK   74  A    between atoms: _183  and  _184
REMARK   75  A    between atoms: _186  and  _188
REMARK   76  A    between atoms: _188  and  _189
REMARK   77  A    between atoms: _191  and  _193
REMARK   78  A    between atoms: _193  and  _194
REMARK   79  A    between atoms: _193  and  _196
REMARK   80  A    between atoms: _196  and  _197
REMARK   81  A    between atoms: _200  and  _202
REMARK   82  A    between atoms: _202  and  _203
REMARK   83  A    between atoms: _205  and  _207
REMARK   84  A    between atoms: _207  and  _208
REMARK   85  A    between atoms: _207  and  _210
REMARK   86  A    between atoms: _210  and  _211
REMARK   87  A    between atoms: _213  and  _215
REMARK   88  A    between atoms: _215  and  _216
REMARK   89  A    between atoms: _215  and  _218
REMARK   90  A    between atoms: _218  and  _219
REMARK   91  A    between atoms: _221  and  _223
REMARK   92  A    between atoms: _223  and  _224
REMARK   93  A    between atoms: _223  and  _226
REMARK   94  A    between atoms: _226  and  _227
REMARK   95  A    between atoms: _227  and  _228
REMARK   96  A    between atoms: _233  and  _235
REMARK   97  A    between atoms: _235  and  _236
REMARK   98  A    between atoms: _235  and  _238
REMARK   99  A    between atoms: _238  and  _239
REMARK  100  A    between atoms: _245  and  _247
REMARK  101  A    between atoms: _247  and  _248
REMARK  102  A    between atoms: _247  and  _250
REMARK  103  A    between atoms: _250  and  _251
REMARK  104  A    between atoms: _254  and  _256
REMARK  105  A    between atoms: _256  and  _257
REMARK  106  A    between atoms: _256  and  _259
REMARK  107  A    between atoms: _259  and  _260
REMARK  108  A    between atoms: _265  and  _267
REMARK  109  A    between atoms: _267  and  _268
REMARK  110  A    between atoms: _267  and  _270
REMARK  111  A    between atoms: _270  and  _271
REMARK  112  A    between atoms: _276  and  _278
REMARK  113  A    between atoms: _278  and  _279
REMARK  114  A    between atoms: _281  and  _283
REMARK  115  A    between atoms: _283  and  _284
REMARK  116  A    between atoms: _283  and  _286
REMARK  117  A    between atoms: _286  and  _287
REMARK  118  A    between atoms: _290  and  _292
REMARK  119  A    between atoms: _292  and  _293
REMARK  120  A    between atoms: _292  and  _295
REMARK  121  A    between atoms: _295  and  _296
REMARK  122  A    between atoms: _299  and  _301
REMARK  123  A    between atoms: _301  and  _302
REMARK  124  A    between atoms: _304  and  _306
REMARK  125  A    between atoms: _306  and  _307
REMARK  126  A    between atoms: _306  and  _309
REMARK  127  A    between atoms: _309  and  _310
REMARK  128  A    between atoms: _313  and  _315
REMARK  129  A    between atoms: _315  and  _316
REMARK  130  A    between atoms: _319  and  _321
REMARK  131  A    between atoms: _321  and  _322
REMARK  132  A    between atoms: _321  and  _324
REMARK  133  A    between atoms: _324  and  _325
REMARK  134  A    between atoms: _328  and  _330
REMARK  135  A    between atoms: _330  and  _331
REMARK  136  A    between atoms: _330  and  _333
REMARK  137  A    between atoms: _333  and  _334
REMARK  138  A    between atoms: _337  and  _339
REMARK  139  A    between atoms: _339  and  _340
REMARK  140  A    between atoms: _339  and  _342
REMARK  141  A    between atoms: _342  and  _343
REMARK  142  A    between atoms: _349  and  _351
REMARK  143  A    between atoms: _351  and  _352
REMARK  144  A    between atoms: _351  and  _354
REMARK  145  A    between atoms: _354  and  _355
REMARK  146  A    between atoms: _365  and  _367
REMARK  147  A    between atoms: _367  and  _368
REMARK  148  A    between atoms: _367  and  _370
REMARK  149  A    between atoms: _370  and  _371
REMARK  150  A    between atoms: _374  and  _376
REMARK  151  A    between atoms: _376  and  _377
REMARK  152  A    between atoms: _380  and  _382
REMARK  153  A    between atoms: _382  and  _383
REMARK  154  A    between atoms: _382  and  _385
REMARK  155  A    between atoms: _385  and  _386
REMARK  156  A    between atoms: _389  and  _391
REMARK  157  A    between atoms: _391  and  _392
REMARK  158  A    between atoms: _391  and  _394
REMARK  159  A    between atoms: _394  and  _395
REMARK  160  A    between atoms: _398  and  _400
REMARK  161  A    between atoms: _400  and  _401
REMARK  162  A    between atoms: _403  and  _405
REMARK  163  A    between atoms: _405  and  _406
REMARK  164  A    between atoms: _405  and  _408
REMARK  165  A    between atoms: _408  and  _409
REMARK  166  A    between atoms: _412  and  _414
REMARK  167  A    between atoms: _414  and  _415
REMARK  168  A    between atoms: _414  and  _417
REMARK  169  A    between atoms: _417  and  _418
REMARK  170  A    between atoms: _421  and  _423
REMARK  171  A    between atoms: _423  and  _424
REMARK  172  A    between atoms: _423  and  _426
REMARK  173  A    between atoms: _426  and  _427
REMARK  174  A    between atoms: _430  and  _432
REMARK  175  A    between atoms: _432  and  _433
REMARK  176  A    between atoms: _432  and  _435
REMARK  177  A    between atoms: _435  and  _436
REMARK  178  A    between atoms: _439  and  _441
REMARK  179  A    between atoms: _441  and  _442
REMARK  180  A    between atoms: _441  and  _444
REMARK  181  A    between atoms: _444  and  _445
REMARK  182  A    between atoms: _448  and  _450
REMARK  183  A    between atoms: _450  and  _451
REMARK  184  A    between atoms: _454  and  _456
REMARK  185  A    between atoms: _456  and  _457
REMARK  186  A    between atoms: _459  and  _461
REMARK  187  A    between atoms: _461  and  _462
REMARK  188  A    between atoms: _464  and  _466
REMARK  189  A    between atoms: _466  and  _467
REMARK  190  A    between atoms: _466  and  _469
REMARK  191  A    between atoms: _469  and  _470
REMARK  192  A    between atoms: _475  and  _476
REMARK  193  A    between atoms: _479  and  _480
REMARK  194  A    between atoms: _485  and  _487
REMARK  195  A    between atoms: _487  and  _488
REMARK  196  A    between atoms: _487  and  _490
REMARK  197  A    between atoms: _490  and  _491
REMARK  198  A    between atoms: _493  and  _495
REMARK  199  A    between atoms: _495  and  _496
REMARK  200  A    between atoms: _495  and  _498
REMARK  201  A    between atoms: _498  and  _499
REMARK  202  A    between atoms: _502  and  _504
REMARK  203  A    between atoms: _504  and  _505
REMARK  204  A    between atoms: _507  and  _509
REMARK  205  A    between atoms: _509  and  _510
REMARK  206  A    between atoms: _509  and  _512
REMARK  207  A    between atoms: _512  and  _513
REMARK  208  A    between atoms: _513  and  _514
REMARK  209  A    between atoms: _519  and  _521
REMARK  210  A    between atoms: _521  and  _522
REMARK  211  A    between atoms: _521  and  _524
REMARK  212  A    between atoms: _524  and  _525
REMARK  213  A    between atoms: _527  and  _529
REMARK  214  A    between atoms: _529  and  _530
REMARK  215  A    between atoms: _529  and  _532
REMARK  216  A    between atoms: _532  and  _533
REMARK  217  A    between atoms: _538  and  _540
REMARK  218  A    between atoms: _540  and  _541
REMARK  219  A    between atoms: _540  and  _543
REMARK  220  A    between atoms: _543  and  _544
REMARK  221  A    between atoms: _546  and  _548
REMARK  222  A    between atoms: _548  and  _549
REMARK  223  A    between atoms: _548  and  _551
REMARK  224  A    between atoms: _551  and  _552
REMARK  225  A    between atoms: _555  and  _557
REMARK  226  A    between atoms: _557  and  _558
REMARK  227  A    between atoms: _557  and  _560
REMARK  228  A    between atoms: _560  and  _561
REMARK  229  A    between atoms: _567  and  _569
REMARK  230  A    between atoms: _569  and  _570
REMARK  231  A    between atoms: _569  and  _572
REMARK  232  A    between atoms: _572  and  _573
REMARK  233  A    between atoms: _575  and  _577
REMARK  234  A    between atoms: _577  and  _578
REMARK  235  A    between atoms: _577  and  _580
REMARK  236  A    between atoms: _580  and  _581
REMARK  237  A    between atoms: _584  and  _586
REMARK  238  A    between atoms: _586  and  _587
REMARK  239  A    between atoms: _586  and  _589
REMARK  240  A    between atoms: _589  and  _590
REMARK  241  A    between atoms: _596  and  _598
REMARK  242  A    between atoms: _598  and  _599
REMARK  243  A    between atoms: _601  and  _603
REMARK  244  A    between atoms: _603  and  _604
REMARK  245  A    between atoms: _603  and  _606
REMARK  246  A    between atoms: _606  and  _607
REMARK                            x       y       z     vdW  Elec       q    Type
REMARK                         _______ _______ _______ _____ _____    ______ ____
ROOT
ATOM      1  O   HOH     1      31.203  14.641  23.554  0.00  0.00    +0.000 OA
ENDROOT
TORSDOF 0
REMARK  Name = ../refined-set-2016/1ppl/1ppl_pocket.pdb
REMARK  246 active torsions:
REMARK  status: ('A' for Active; 'I' for Inactive)
REMARK    1  A    between atoms: _1  and  _3
REMARK    2  A    between atoms: _3  and  _4
REMARK    3  A    between atoms: _3  and  _6
REMARK    4  A    between atoms: _6  and  _7
REMARK    5  A    between atoms: _10  and  _12
REMARK    6  A    between atoms: _12  and  _13
REMARK    7  A    between atoms: _16  and  _18
REMARK    8  A    between atoms: _18  and  _19
REMARK    9  A    between atoms: _18  and  _21
REMARK   10  A    between atoms: _21  and  _22
REMARK   11  A    between atoms: _27  and  _29
REMARK   12  A    between atoms: _29  and  _30
REMARK   13  A    between atoms: _29  and  _32
REMARK   14  A    between atoms: _32  and  _33
REMARK   15  A    between atoms: _36  and  _38
REMARK   16  A    between atoms: _38  and  _39
REMARK   17  A    between atoms: _38  and  _41
REMARK   18  A    between atoms: _41  and  _42
REMARK   19  A    between atoms: _42  and  _43
REMARK   20  A    between atoms: _46  and  _48
REMARK   21  A    between atoms: _48  and  _49
REMARK   22  A    between atoms: _48  and  _51
REMARK   23  A    between atoms: _51  and  _52
REMARK   24  A    between atoms: _52  and  _53
REMARK   25  A    between atoms: _56  and  _58
REMARK   26  A    between atoms: _58  and  _59
REMARK   27  A    between atoms: _58  and  _61
REMARK   28  A    between atoms: _61  and  _62
REMARK   29  A    between atoms: _67  and  _68
REMARK   30  A    between atoms: _70  and  _72
REMARK   31  A    between atoms: _72  and  _73
REMARK   32  A    between atoms: _72  and  _75
REMARK   33  A    between atoms: _75  and  _76
REMARK   34  A    between atoms: _81  and  _83
REMARK   35  A    between atoms: _83  and  _84
REMARK   36  A    between atoms: _83  and  _86
REMARK   37  A    between atoms: _86  and  _87
REMARK   38  A    between atoms: _93  and  _95
REMARK   39  A    between atoms: _95  and  _96
REMARK   40  A    between atoms: _95  and  _98
REMARK   41  A    between atoms: _98  and  _99
REMARK   42  A    between atoms: _102  and  _104
REMARK   43  A    between atoms: _104  and  _105
REMARK   44  A    between atoms: _104  and  _107
REMARK   45  A    between atoms: _107  and  _108
REMARK   46  A    between atoms: _111  and  _113
REMARK   47  A    between atoms: _113  and  _114
REMARK   48  A    between atoms: _116  and  _118
REMARK   49  A    between atoms: _118  and  _119
REMARK   50  A    between atoms: _118  and  _121
REMARK   51  A    between atoms: _121  and  _122
REMARK   52  A    between atoms: _124  and  _126
REMARK   53  A    between atoms: _126  and  _127
REMARK   54  A    between atoms: _130  and  _132
REMARK   55  A    between atoms: _132  and  _133
REMARK   56  A    between atoms: _132  and  _135
REMARK   57  A    between atoms: _135  and  _136
REMARK   58  A    between atoms: _139  and  _141
REMARK   59  A    between atoms: _141  and  _142
REMARK   60  A    between atoms: _141  and  _144
REMARK   61  A    between atoms: _144  and  _145
REMARK   62  A    between atoms: _155  and  _157
REMARK   63  A    between atoms: _157  and  _158
REMARK   64  A    between atoms: _157  and  _160
REMARK   65  A    between atoms: _160  and  _161
REMARK   66  A    between atoms: _164  and  _166
REMARK   67  A    between atoms: _166  and  _167
REMARK   68  A    between atoms: _166  and  _169
REMARK   69  A    between atoms: _169  and  _170
REMARK   70  A    between atoms: _172  and  _174
REMARK   71  A    between atoms: _174  and  _175
REMARK   72  A    between atoms: _174  and  _177
REMARK   73  A    between atoms: _177  and  _178
REMARK   74  A    between atoms: _183  and  _184
REMARK   75  A    between atoms: _186  and  _188
REMARK   76  A    between atoms: _188  and  _189
REMARK   77  A    between atoms: _191  and  _193
REMARK   78  A    between atoms: _193  and  _194
REMARK   79  A    between atoms: _193  and  _196
REMARK   80  A    between atoms: _196  and  _197
REMARK   81  A    between atoms: _200  and  _202
REMARK   82  A    between atoms: _202  and  _203
REMARK   83  A    between atoms: _205  and  _207
REMARK   84  A    between atoms: _207  and  _208
REMARK   85  A    between atoms: _207  and  _210
REMARK   86  A    between atoms: _210  and  _211
REMARK   87  A    between atoms: _213  and  _215
REMARK   88  A    between atoms: _215  and  _216
REMARK   89  A    between atoms: _215  and  _218
REMARK   90  A    between atoms: _218  and  _219
REMARK   91  A    between atoms: _221  and  _223
REMARK   92  A    between atoms: _223  and  _224
REMARK   93  A    between atoms: _223  and  _226
REMARK   94  A    between atoms: _226  and  _227
REMARK   95  A    between atoms: _227  and  _228
REMARK   96  A    between atoms: _233  and  _235
REMARK   97  A    between atoms: _235  and  _236
REMARK   98  A    between atoms: _235  and  _238
REMARK   99  A    between atoms: _238  and  _239
REMARK  100  A    between atoms: _245  and  _247
REMARK  101  A    between atoms: _247  and  _248
REMARK  102  A    between atoms: _247  and  _250
REMARK  103  A    between atoms: _250  and  _251
REMARK  104  A    between atoms: _254  and  _256
REMARK  105  A    between atoms: _256  and  _257
REMARK  106  A    between atoms: _256  and  _259
REMARK  107  A    between atoms: _259  and  _260
REMARK  108  A    between atoms: _265  and  _267
REMARK  109  A    between atoms: _267  and  _268
REMARK  110  A    between atoms: _267  and  _270
REMARK  111  A    between atoms: _270  and  _271
REMARK  112  A    between atoms: _276  and  _278
REMARK  113  A    between atoms: _278  and  _279
REMARK  114  A    between atoms: _281  and  _283
REMARK  115  A    between atoms: _283  and  _284
REMARK  116  A    between atoms: _283  and  _286
REMARK  117  A    between atoms: _286  and  _287
REMARK  118  A    between atoms: _290  and  _292
REMARK  119  A    between atoms: _292  and  _293
REMARK  120  A    between atoms: _292  and  _295
REMARK  121  A    between atoms: _295  and  _296
REMARK  122  A    between atoms: _299  and  _301
REMARK  123  A    between atoms: _301  and  _302
REMARK  124  A    between atoms: _304  and  _306
REMARK  125  A    between atoms: _306  and  _307
REMARK  126  A    between atoms: _306  and  _309
REMARK  127  A    between atoms: _309  and  _310
REMARK  128  A    between atoms: _313  and  _315
REMARK  129  A    between atoms: _315  and  _316
REMARK  130  A    between atoms: _319  and  _321
REMARK  131  A    between atoms: _321  and  _322
REMARK  132  A    between atoms: _321  and  _324
REMARK  133  A    between atoms: _324  and  _325
REMARK  134  A    between atoms: _328  and  _330
REMARK  135  A    between atoms: _330  and  _331
REMARK  136  A    between atoms: _330  and  _333
REMARK  137  A    between atoms: _333  and  _334
REMARK  138  A    between atoms: _337  and  _339
REMARK  139  A    between atoms: _339  and  _340
REMARK  140  A    between atoms: _339  and  _342
REMARK  141  A    between atoms: _342  and  _343
REMARK  142  A    between atoms: _349  and  _351
REMARK  143  A    between atoms: _351  and  _352
REMARK  144  A    between atoms: _351  and  _354
REMARK  145  A    between atoms: _354  and  _355
REMARK  146  A    between atoms: _365  and  _367
REMARK  147  A    between atoms: _367  and  _368
REMARK  148  A    between atoms: _367  and  _370
REMARK  149  A    between atoms: _370  and  _371
REMARK  150  A    between atoms: _374  and  _376
REMARK  151  A    between atoms: _376  and  _377
REMARK  152  A    between atoms: _380  and  _382
REMARK  153  A    between atoms: _382  and  _383
REMARK  154  A    between atoms: _382  and  _385
REMARK  155  A    between atoms: _385  and  _386
REMARK  156  A    between atoms: _389  and  _391
REMARK  157  A    between atoms: _391  and  _392
REMARK  158  A    between atoms: _391  and  _394
REMARK  159  A    between atoms: _394  and  _395
REMARK  160  A    between atoms: _398  and  _400
REMARK  161  A    between atoms: _400  and  _401
REMARK  162  A    between atoms: _403  and  _405
REMARK  163  A    between atoms: _405  and  _406
REMARK  164  A    between atoms: _405  and  _408
REMARK  165  A    between atoms: _408  and  _409
REMARK  166  A    between atoms: _412  and  _414
REMARK  167  A    between atoms: _414  and  _415
REMARK  168  A    between atoms: _414  and  _417
REMARK  169  A    between atoms: _417  and  _418
REMARK  170  A    between atoms: _421  and  _423
REMARK  171  A    between atoms: _423  and  _424
REMARK  172  A    between atoms: _423  and  _426
REMARK  173  A    between atoms: _426  and  _427
REMARK  174  A    between atoms: _430  and  _432
REMARK  175  A    between atoms: _432  and  _433
REMARK  176  A    between atoms: _432  and  _435
REMARK  177  A    between atoms: _435  and  _436
REMARK  178  A    between atoms: _439  and  _441
REMARK  179  A    between atoms: _441  and  _442
REMARK  180  A    between atoms: _441  and  _444
REMARK  181  A    between atoms: _444  and  _445
REMARK  182  A    between atoms: _448  and  _450
REMARK  183  A    between atoms: _450  and  _451
REMARK  184  A    between atoms: _454  and  _456
REMARK  185  A    between atoms: _456  and  _457
REMARK  186  A    between atoms: _459  and  _461
REMARK  187  A    between atoms: _461  and  _462
REMARK  188  A    between atoms: _464  and  _466
REMARK  189  A    between atoms: _466  and  _467
REMARK  190  A    between atoms: _466  and  _469
REMARK  191  A    between atoms: _469  and  _470
REMARK  192  A    between atoms: _475  and  _476
REMARK  193  A    between atoms: _479  and  _480
REMARK  194  A    between atoms: _485  and  _487
REMARK  195  A    between atoms: _487  and  _488
REMARK  196  A    between atoms: _487  and  _490
REMARK  197  A    between atoms: _490  and  _491
REMARK  198  A    between atoms: _493  and  _495
REMARK  199  A    between atoms: _495  and  _496
REMARK  200  A    between atoms: _495  and  _498
REMARK  201  A    between atoms: _498  and  _499
REMARK  202  A    between atoms: _502  and  _504
REMARK  203  A    between atoms: _504  and  _505
REMARK  204  A    between atoms: _507  and  _509
REMARK  205  A    between atoms: _509  and  _510
REMARK  206  A    between atoms: _509  and  _512
REMARK  207  A    between atoms: _512  and  _513
REMARK  208  A    between atoms: _513  and  _514
REMARK  209  A    between atoms: _519  and  _521
REMARK  210  A    between atoms: _521  and  _522
REMARK  211  A    between atoms: _521  and  _524
REMARK  212  A    between atoms: _524  and  _525
REMARK  213  A    between atoms: _527  and  _529
REMARK  214  A    between atoms: _529  and  _530
REMARK  215  A    between atoms: _529  and  _532
REMARK  216  A    between atoms: _532  and  _533
REMARK  217  A    between atoms: _538  and  _540
REMARK  218  A    between atoms: _540  and  _541
REMARK  219  A    between atoms: _540  and  _543
REMARK  220  A    between atoms: _543  and  _544
REMARK  221  A    between atoms: _546  and  _548
REMARK  222  A    between atoms: _548  and  _549
REMARK  223  A    between atoms: _548  and  _551
REMARK  224  A    between atoms: _551  and  _552
REMARK  225  A    between atoms: _555  and  _557
REMARK  226  A    between atoms: _557  and  _558
REMARK  227  A    between atoms: _557  and  _560
REMARK  228  A    between atoms: _560  and  _561
REMARK  229  A    between atoms: _567  and  _569
REMARK  230  A    between atoms: _569  and  _570
REMARK  231  A    between atoms: _569  and  _572
REMARK  232  A    between atoms: _572  and  _573
REMARK  233  A    between atoms: _575  and  _577
REMARK  234  A    between atoms: _577  and  _578
REMARK  235  A    between atoms: _577  and  _580
REMARK  236  A    between atoms: _580  and  _581
REMARK  237  A    between atoms: _584  and  _586
REMARK  238  A    between atoms: _586  and  _587
REMARK  239  A    between atoms: _586  and  _589
REMARK  240  A    between atoms: _589  and  _590
REMARK  241  A    between atoms: _596  and  _598
REMARK  242  A    between atoms: _598  and  _599
REMARK  243  A    between atoms: _601  and  _603
REMARK  244  A    between atoms: _603  and  _604
REMARK  245  A    between atoms: _603  and  _606
REMARK  246  A    between atoms: _606  and  _607
REMARK                            x       y       z     vdW  Elec       q    Type
REMARK                         _______ _______ _______ _____ _____    ______ ____
ROOT
ATOM      1  O   HOH     1      14.702   8.676  27.361  0.00  0.00    +0.000 OA
ENDROOT
TORSDOF 0
REMARK  Name = ../refined-set-2016/1ppl/1ppl_pocket.pdb
REMARK  246 active torsions:
REMARK  status: ('A' for Active; 'I' for Inactive)
REMARK    1  A    between atoms: _1  and  _3
REMARK    2  A    between atoms: _3  and  _4
REMARK    3  A    between atoms: _3  and  _6
REMARK    4  A    between atoms: _6  and  _7
REMARK    5  A    between atoms: _10  and  _12
REMARK    6  A    between atoms: _12  and  _13
REMARK    7  A    between atoms: _16  and  _18
REMARK    8  A    between atoms: _18  and  _19
REMARK    9  A    between atoms: _18  and  _21
REMARK   10  A    between atoms: _21  and  _22
REMARK   11  A    between atoms: _27  and  _29
REMARK   12  A    between atoms: _29  and  _30
REMARK   13  A    between atoms: _29  and  _32
REMARK   14  A    between atoms: _32  and  _33
REMARK   15  A    between atoms: _36  and  _38
REMARK   16  A    between atoms: _38  and  _39
REMARK   17  A    between atoms: _38  and  _41
REMARK   18  A    between atoms: _41  and  _42
REMARK   19  A    between atoms: _42  and  _43
REMARK   20  A    between atoms: _46  and  _48
REMARK   21  A    between atoms: _48  and  _49
REMARK   22  A    between atoms: _48  and  _51
REMARK   23  A    between atoms: _51  and  _52
REMARK   24  A    between atoms: _52  and  _53
REMARK   25  A    between atoms: _56  and  _58
REMARK   26  A    between atoms: _58  and  _59
REMARK   27  A    between atoms: _58  and  _61
REMARK   28  A    between atoms: _61  and  _62
REMARK   29  A    between atoms: _67  and  _68
REMARK   30  A    between atoms: _70  and  _72
REMARK   31  A    between atoms: _72  and  _73
REMARK   32  A    between atoms: _72  and  _75
REMARK   33  A    between atoms: _75  and  _76
REMARK   34  A    between atoms: _81  and  _83
REMARK   35  A    between atoms: _83  and  _84
REMARK   36  A    between atoms: _83  and  _86
REMARK   37  A    between atoms: _86  and  _87
REMARK   38  A    between atoms: _93  and  _95
REMARK   39  A    between atoms: _95  and  _96
REMARK   40  A    between atoms: _95  and  _98
REMARK   41  A    between atoms: _98  and  _99
REMARK   42  A    between atoms: _102  and  _104
REMARK   43  A    between atoms: _104  and  _105
REMARK   44  A    between atoms: _104  and  _107
REMARK   45  A    between atoms: _107  and  _108
REMARK   46  A    between atoms: _111  and  _113
REMARK   47  A    between atoms: _113  and  _114
REMARK   48  A    between atoms: _116  and  _118
REMARK   49  A    between atoms: _118  and  _119
REMARK   50  A    between atoms: _118  and  _121
REMARK   51  A    between atoms: _121  and  _122
REMARK   52  A    between atoms: _124  and  _126
REMARK   53  A    between atoms: _126  and  _127
REMARK   54  A    between atoms: _130  and  _132
REMARK   55  A    between atoms: _132  and  _133
REMARK   56  A    between atoms: _132  and  _135
REMARK   57  A    between atoms: _135  and  _136
REMARK   58  A    between atoms: _139  and  _141
REMARK   59  A    between atoms: _141  and  _142
REMARK   60  A    between atoms: _141  and  _144
REMARK   61  A    between atoms: _144  and  _145
REMARK   62  A    between atoms: _155  and  _157
REMARK   63  A    between atoms: _157  and  _158
REMARK   64  A    between atoms: _157  and  _160
REMARK   65  A    between atoms: _160  and  _161
REMARK   66  A    between atoms: _164  and  _166
REMARK   67  A    between atoms: _166  and  _167
REMARK   68  A    between atoms: _166  and  _169
REMARK   69  A    between atoms: _169  and  _170
REMARK   70  A    between atoms: _172  and  _174
REMARK   71  A    between atoms: _174  and  _175
REMARK   72  A    between atoms: _174  and  _177
REMARK   73  A    between atoms: _177  and  _178
REMARK   74  A    between atoms: _183  and  _184
REMARK   75  A    between atoms: _186  and  _188
REMARK   76  A    between atoms: _188  and  _189
REMARK   77  A    between atoms: _191  and  _193
REMARK   78  A    between atoms: _193  and  _194
REMARK   79  A    between atoms: _193  and  _196
REMARK   80  A    between atoms: _196  and  _197
REMARK   81  A    between atoms: _200  and  _202
REMARK   82  A    between atoms: _202  and  _203
REMARK   83  A    between atoms: _205  and  _207
REMARK   84  A    between atoms: _207  and  _208
REMARK   85  A    between atoms: _207  and  _210
REMARK   86  A    between atoms: _210  and  _211
REMARK   87  A    between atoms: _213  and  _215
REMARK   88  A    between atoms: _215  and  _216
REMARK   89  A    between atoms: _215  and  _218
REMARK   90  A    between atoms: _218  and  _219
REMARK   91  A    between atoms: _221  and  _223
REMARK   92  A    between atoms: _223  and  _224
REMARK   93  A    between atoms: _223  and  _226
REMARK   94  A    between atoms: _226  and  _227
REMARK   95  A    between atoms: _227  and  _228
REMARK   96  A    between atoms: _233  and  _235
REMARK   97  A    between atoms: _235  and  _236
REMARK   98  A    between atoms: _235  and  _238
REMARK   99  A    between atoms: _238  and  _239
REMARK  100  A    between atoms: _245  and  _247
REMARK  101  A    between atoms: _247  and  _248
REMARK  102  A    between atoms: _247  and  _250
REMARK  103  A    between atoms: _250  and  _251
REMARK  104  A    between atoms: _254  and  _256
REMARK  105  A    between atoms: _256  and  _257
REMARK  106  A    between atoms: _256  and  _259
REMARK  107  A    between atoms: _259  and  _260
REMARK  108  A    between atoms: _265  and  _267
REMARK  109  A    between atoms: _267  and  _268
REMARK  110  A    between atoms: _267  and  _270
REMARK  111  A    between atoms: _270  and  _271
REMARK  112  A    between atoms: _276  and  _278
REMARK  113  A    between atoms: _278  and  _279
REMARK  114  A    between atoms: _281  and  _283
REMARK  115  A    between atoms: _283  and  _284
REMARK  116  A    between atoms: _283  and  _286
REMARK  117  A    between atoms: _286  and  _287
REMARK  118  A    between atoms: _290  and  _292
REMARK  119  A    between atoms: _292  and  _293
REMARK  120  A    between atoms: _292  and  _295
REMARK  121  A    between atoms: _295  and  _296
REMARK  122  A    between atoms: _299  and  _301
REMARK  123  A    between atoms: _301  and  _302
REMARK  124  A    between atoms: _304  and  _306
REMARK  125  A    between atoms: _306  and  _307
REMARK  126  A    between atoms: _306  and  _309
REMARK  127  A    between atoms: _309  and  _310
REMARK  128  A    between atoms: _313  and  _315
REMARK  129  A    between atoms: _315  and  _316
REMARK  130  A    between atoms: _319  and  _321
REMARK  131  A    between atoms: _321  and  _322
REMARK  132  A    between atoms: _321  and  _324
REMARK  133  A    between atoms: _324  and  _325
REMARK  134  A    between atoms: _328  and  _330
REMARK  135  A    between atoms: _330  and  _331
REMARK  136  A    between atoms: _330  and  _333
REMARK  137  A    between atoms: _333  and  _334
REMARK  138  A    between atoms: _337  and  _339
REMARK  139  A    between atoms: _339  and  _340
REMARK  140  A    between atoms: _339  and  _342
REMARK  141  A    between atoms: _342  and  _343
REMARK  142  A    between atoms: _349  and  _351
REMARK  143  A    between atoms: _351  and  _352
REMARK  144  A    between atoms: _351  and  _354
REMARK  145  A    between atoms: _354  and  _355
REMARK  146  A    between atoms: _365  and  _367
REMARK  147  A    between atoms: _367  and  _368
REMARK  148  A    between atoms: _367  and  _370
REMARK  149  A    between atoms: _370  and  _371
REMARK  150  A    between atoms: _374  and  _376
REMARK  151  A    between atoms: _376  and  _377
REMARK  152  A    between atoms: _380  and  _382
REMARK  153  A    between atoms: _382  and  _383
REMARK  154  A    between atoms: _382  and  _385
REMARK  155  A    between atoms: _385  and  _386
REMARK  156  A    between atoms: _389  and  _391
REMARK  157  A    between atoms: _391  and  _392
REMARK  158  A    between atoms: _391  and  _394
REMARK  159  A    between atoms: _394  and  _395
REMARK  160  A    between atoms: _398  and  _400
REMARK  161  A    between atoms: _400  and  _401
REMARK  162  A    between atoms: _403  and  _405
REMARK  163  A    between atoms: _405  and  _406
REMARK  164  A    between atoms: _405  and  _408
REMARK  165  A    between atoms: _408  and  _409
REMARK  166  A    between atoms: _412  and  _414
REMARK  167  A    between atoms: _414  and  _415
REMARK  168  A    between atoms: _414  and  _417
REMARK  169  A    between atoms: _417  and  _418
REMARK  170  A    between atoms: _421  and  _423
REMARK  171  A    between atoms: _423  and  _424
REMARK  172  A    between atoms: _423  and  _426
REMARK  173  A    between atoms: _426  and  _427
REMARK  174  A    between atoms: _430  and  _432
REMARK  175  A    between atoms: _432  and  _433
REMARK  176  A    between atoms: _432  and  _435
REMARK  177  A    between atoms: _435  and  _436
REMARK  178  A    between atoms: _439  and  _441
REMARK  179  A    between atoms: _441  and  _442
REMARK  180  A    between atoms: _441  and  _444
REMARK  181  A    between atoms: _444  and  _445
REMARK  182  A    between atoms: _448  and  _450
REMARK  183  A    between atoms: _450  and  _451
REMARK  184  A    between atoms: _454  and  _456
REMARK  185  A    between atoms: _456  and  _457
REMARK  186  A    between atoms: _459  and  _461
REMARK  187  A    between atoms: _461  and  _462
REMARK  188  A    between atoms: _464  and  _466
REMARK  189  A    between atoms: _466  and  _467
REMARK  190  A    between atoms: _466  and  _469
REMARK  191  A    between atoms: _469  and  _470
REMARK  192  A    between atoms: _475  and  _476
REMARK  193  A    between atoms: _479  and  _480
REMARK  194  A    between atoms: _485  and  _487
REMARK  195  A    between atoms: _487  and  _488
REMARK  196  A    between atoms: _487  and  _490
REMARK  197  A    between atoms: _490  and  _491
REMARK  198  A    between atoms: _493  and  _495
REMARK  199  A    between atoms: _495  and  _496
REMARK  200  A    between atoms: _495  and  _498
REMARK  201  A    between atoms: _498  and  _499
REMARK  202  A    between atoms: _502  and  _504
REMARK  203  A    between atoms: _504  and  _505
REMARK  204  A    between atoms: _507  and  _509
REMARK  205  A    between atoms: _509  and  _510
REMARK  206  A    between atoms: _509  and  _512
REMARK  207  A    between atoms: _512  and  _513
REMARK  208  A    between atoms: _513  and  _514
REMARK  209  A    between atoms: _519  and  _521
REMARK  210  A    between atoms: _521  and  _522
REMARK  211  A    between atoms: _521  and  _524
REMARK  212  A    between atoms: _524  and  _525
REMARK  213  A    between atoms: _527  and  _529
REMARK  214  A    between atoms: _529  and  _530
REMARK  215  A    between atoms: _529  and  _532
REMARK  216  A    between atoms: _532  and  _533
REMARK  217  A    between atoms: _538  and  _540
REMARK  218  A    between atoms: _540  and  _541
REMARK  219  A    between atoms: _540  and  _543
REMARK  220  A    between atoms: _543  and  _544
REMARK  221  A    between atoms: _546  and  _548
REMARK  222  A    between atoms: _548  and  _549
REMARK  223  A    between atoms: _548  and  _551
REMARK  224  A    between atoms: _551  and  _552
REMARK  225  A    between atoms: _555  and  _557
REMARK  226  A    between atoms: _557  and  _558
REMARK  227  A    between atoms: _557  and  _560
REMARK  228  A    between atoms: _560  and  _561
REMARK  229  A    between atoms: _567  and  _569
REMARK  230  A    between atoms: _569  and  _570
REMARK  231  A    between atoms: _569  and  _572
REMARK  232  A    between atoms: _572  and  _573
REMARK  233  A    between atoms: _575  and  _577
REMARK  234  A    between atoms: _577  and  _578
REMARK  235  A    between atoms: _577  and  _580
REMARK  236  A    between atoms: _580  and  _581
REMARK  237  A    between atoms: _584  and  _586
REMARK  238  A    between atoms: _586  and  _587
REMARK  239  A    between atoms: _586  and  _589
REMARK  240  A    between atoms: _589  and  _590
REMARK  241  A    between atoms: _596  and  _598
REMARK  242  A    between atoms: _598  and  _599
REMARK  243  A    between atoms: _601  and  _603
REMARK  244  A    between atoms: _603  and  _604
REMARK  245  A    between atoms: _603  and  _606
REMARK  246  A    between atoms: _606  and  _607
REMARK                            x       y       z     vdW  Elec       q    Type
REMARK                         _______ _______ _______ _____ _____    ______ ____
ROOT
ATOM      1  O   HOH     1      21.521  10.987  12.734  0.00  0.00    +0.000 OA
ENDROOT
TORSDOF 0
REMARK  Name = ../refined-set-2016/1ppl/1ppl_pocket.pdb
REMARK  246 active torsions:
REMARK  status: ('A' for Active; 'I' for Inactive)
REMARK    1  A    between atoms: _1  and  _3
REMARK    2  A    between atoms: _3  and  _4
REMARK    3  A    between atoms: _3  and  _6
REMARK    4  A    between atoms: _6  and  _7
REMARK    5  A    between atoms: _10  and  _12
REMARK    6  A    between atoms: _12  and  _13
REMARK    7  A    between atoms: _16  and  _18
REMARK    8  A    between atoms: _18  and  _19
REMARK    9  A    between atoms: _18  and  _21
REMARK   10  A    between atoms: _21  and  _22
REMARK   11  A    between atoms: _27  and  _29
REMARK   12  A    between atoms: _29  and  _30
REMARK   13  A    between atoms: _29  and  _32
REMARK   14  A    between atoms: _32  and  _33
REMARK   15  A    between atoms: _36  and  _38
REMARK   16  A    between atoms: _38  and  _39
REMARK   17  A    between atoms: _38  and  _41
REMARK   18  A    between atoms: _41  and  _42
REMARK   19  A    between atoms: _42  and  _43
REMARK   20  A    between atoms: _46  and  _48
REMARK   21  A    between atoms: _48  and  _49
REMARK   22  A    between atoms: _48  and  _51
REMARK   23  A    between atoms: _51  and  _52
REMARK   24  A    between atoms: _52  and  _53
REMARK   25  A    between atoms: _56  and  _58
REMARK   26  A    between atoms: _58  and  _59
REMARK   27  A    between atoms: _58  and  _61
REMARK   28  A    between atoms: _61  and  _62
REMARK   29  A    between atoms: _67  and  _68
REMARK   30  A    between atoms: _70  and  _72
REMARK   31  A    between atoms: _72  and  _73
REMARK   32  A    between atoms: _72  and  _75
REMARK   33  A    between atoms: _75  and  _76
REMARK   34  A    between atoms: _81  and  _83
REMARK   35  A    between atoms: _83  and  _84
REMARK   36  A    between atoms: _83  and  _86
REMARK   37  A    between atoms: _86  and  _87
REMARK   38  A    between atoms: _93  and  _95
REMARK   39  A    between atoms: _95  and  _96
REMARK   40  A    between atoms: _95  and  _98
REMARK   41  A    between atoms: _98  and  _99
REMARK   42  A    between atoms: _102  and  _104
REMARK   43  A    between atoms: _104  and  _105
REMARK   44  A    between atoms: _104  and  _107
REMARK   45  A    between atoms: _107  and  _108
REMARK   46  A    between atoms: _111  and  _113
REMARK   47  A    between atoms: _113  and  _114
REMARK   48  A    between atoms: _116  and  _118
REMARK   49  A    between atoms: _118  and  _119
REMARK   50  A    between atoms: _118  and  _121
REMARK   51  A    between atoms: _121  and  _122
REMARK   52  A    between atoms: _124  and  _126
REMARK   53  A    between atoms: _126  and  _127
REMARK   54  A    between atoms: _130  and  _132
REMARK   55  A    between atoms: _132  and  _133
REMARK   56  A    between atoms: _132  and  _135
REMARK   57  A    between atoms: _135  and  _136
REMARK   58  A    between atoms: _139  and  _141
REMARK   59  A    between atoms: _141  and  _142
REMARK   60  A    between atoms: _141  and  _144
REMARK   61  A    between atoms: _144  and  _145
REMARK   62  A    between atoms: _155  and  _157
REMARK   63  A    between atoms: _157  and  _158
REMARK   64  A    between atoms: _157  and  _160
REMARK   65  A    between atoms: _160  and  _161
REMARK   66  A    between atoms: _164  and  _166
REMARK   67  A    between atoms: _166  and  _167
REMARK   68  A    between atoms: _166  and  _169
REMARK   69  A    between atoms: _169  and  _170
REMARK   70  A    between atoms: _172  and  _174
REMARK   71  A    between atoms: _174  and  _175
REMARK   72  A    between atoms: _174  and  _177
REMARK   73  A    between atoms: _177  and  _178
REMARK   74  A    between atoms: _183  and  _184
REMARK   75  A    between atoms: _186  and  _188
REMARK   76  A    between atoms: _188  and  _189
REMARK   77  A    between atoms: _191  and  _193
REMARK   78  A    between atoms: _193  and  _194
REMARK   79  A    between atoms: _193  and  _196
REMARK   80  A    between atoms: _196  and  _197
REMARK   81  A    between atoms: _200  and  _202
REMARK   82  A    between atoms: _202  and  _203
REMARK   83  A    between atoms: _205  and  _207
REMARK   84  A    between atoms: _207  and  _208
REMARK   85  A    between atoms: _207  and  _210
REMARK   86  A    between atoms: _210  and  _211
REMARK   87  A    between atoms: _213  and  _215
REMARK   88  A    between atoms: _215  and  _216
REMARK   89  A    between atoms: _215  and  _218
REMARK   90  A    between atoms: _218  and  _219
REMARK   91  A    between atoms: _221  and  _223
REMARK   92  A    between atoms: _223  and  _224
REMARK   93  A    between atoms: _223  and  _226
REMARK   94  A    between atoms: _226  and  _227
REMARK   95  A    between atoms: _227  and  _228
REMARK   96  A    between atoms: _233  and  _235
REMARK   97  A    between atoms: _235  and  _236
REMARK   98  A    between atoms: _235  and  _238
REMARK   99  A    between atoms: _238  and  _239
REMARK  100  A    between atoms: _245  and  _247
REMARK  101  A    between atoms: _247  and  _248
REMARK  102  A    between atoms: _247  and  _250
REMARK  103  A    between atoms: _250  and  _251
REMARK  104  A    between atoms: _254  and  _256
REMARK  105  A    between atoms: _256  and  _257
REMARK  106  A    between atoms: _256  and  _259
REMARK  107  A    between atoms: _259  and  _260
REMARK  108  A    between atoms: _265  and  _267
REMARK  109  A    between atoms: _267  and  _268
REMARK  110  A    between atoms: _267  and  _270
REMARK  111  A    between atoms: _270  and  _271
REMARK  112  A    between atoms: _276  and  _278
REMARK  113  A    between atoms: _278  and  _279
REMARK  114  A    between atoms: _281  and  _283
REMARK  115  A    between atoms: _283  and  _284
REMARK  116  A    between atoms: _283  and  _286
REMARK  117  A    between atoms: _286  and  _287
REMARK  118  A    between atoms: _290  and  _292
REMARK  119  A    between atoms: _292  and  _293
REMARK  120  A    between atoms: _292  and  _295
REMARK  121  A    between atoms: _295  and  _296
REMARK  122  A    between atoms: _299  and  _301
REMARK  123  A    between atoms: _301  and  _302
REMARK  124  A    between atoms: _304  and  _306
REMARK  125  A    between atoms: _306  and  _307
REMARK  126  A    between atoms: _306  and  _309
REMARK  127  A    between atoms: _309  and  _310
REMARK  128  A    between atoms: _313  and  _315
REMARK  129  A    between atoms: _315  and  _316
REMARK  130  A    between atoms: _319  and  _321
REMARK  131  A    between atoms: _321  and  _322
REMARK  132  A    between atoms: _321  and  _324
REMARK  133  A    between atoms: _324  and  _325
REMARK  134  A    between atoms: _328  and  _330
REMARK  135  A    between atoms: _330  and  _331
REMARK  136  A    between atoms: _330  and  _333
REMARK  137  A    between atoms: _333  and  _334
REMARK  138  A    between atoms: _337  and  _339
REMARK  139  A    between atoms: _339  and  _340
REMARK  140  A    between atoms: _339  and  _342
REMARK  141  A    between atoms: _342  and  _343
REMARK  142  A    between atoms: _349  and  _351
REMARK  143  A    between atoms: _351  and  _352
REMARK  144  A    between atoms: _351  and  _354
REMARK  145  A    between atoms: _354  and  _355
REMARK  146  A    between atoms: _365  and  _367
REMARK  147  A    between atoms: _367  and  _368
REMARK  148  A    between atoms: _367  and  _370
REMARK  149  A    between atoms: _370  and  _371
REMARK  150  A    between atoms: _374  and  _376
REMARK  151  A    between atoms: _376  and  _377
REMARK  152  A    between atoms: _380  and  _382
REMARK  153  A    between atoms: _382  and  _383
REMARK  154  A    between atoms: _382  and  _385
REMARK  155  A    between atoms: _385  and  _386
REMARK  156  A    between atoms: _389  and  _391
REMARK  157  A    between atoms: _391  and  _392
REMARK  158  A    between atoms: _391  and  _394
REMARK  159  A    between atoms: _394  and  _395
REMARK  160  A    between atoms: _398  and  _400
REMARK  161  A    between atoms: _400  and  _401
REMARK  162  A    between atoms: _403  and  _405
REMARK  163  A    between atoms: _405  and  _406
REMARK  164  A    between atoms: _405  and  _408
REMARK  165  A    between atoms: _408  and  _409
REMARK  166  A    between atoms: _412  and  _414
REMARK  167  A    between atoms: _414  and  _415
REMARK  168  A    between atoms: _414  and  _417
REMARK  169  A    between atoms: _417  and  _418
REMARK  170  A    between atoms: _421  and  _423
REMARK  171  A    between atoms: _423  and  _424
REMARK  172  A    between atoms: _423  and  _426
REMARK  173  A    between atoms: _426  and  _427
REMARK  174  A    between atoms: _430  and  _432
REMARK  175  A    between atoms: _432  and  _433
REMARK  176  A    between atoms: _432  and  _435
REMARK  177  A    between atoms: _435  and  _436
REMARK  178  A    between atoms: _439  and  _441
REMARK  179  A    between atoms: _441  and  _442
REMARK  180  A    between atoms: _441  and  _444
REMARK  181  A    between atoms: _444  and  _445
REMARK  182  A    between atoms: _448  and  _450
REMARK  183  A    between atoms: _450  and  _451
REMARK  184  A    between atoms: _454  and  _456
REMARK  185  A    between atoms: _456  and  _457
REMARK  186  A    between atoms: _459  and  _461
REMARK  187  A    between atoms: _461  and  _462
REMARK  188  A    between atoms: _464  and  _466
REMARK  189  A    between atoms: _466  and  _467
REMARK  190  A    between atoms: _466  and  _469
REMARK  191  A    between atoms: _469  and  _470
REMARK  192  A    between atoms: _475  and  _476
REMARK  193  A    between atoms: _479  and  _480
REMARK  194  A    between atoms: _485  and  _487
REMARK  195  A    between atoms: _487  and  _488
REMARK  196  A    between atoms: _487  and  _490
REMARK  197  A    between atoms: _490  and  _491
REMARK  198  A    between atoms: _493  and  _495
REMARK  199  A    between atoms: _495  and  _496
REMARK  200  A    between atoms: _495  and  _498
REMARK  201  A    between atoms: _498  and  _499
REMARK  202  A    between atoms: _502  and  _504
REMARK  203  A    between atoms: _504  and  _505
REMARK  204  A    between atoms: _507  and  _509
REMARK  205  A    between atoms: _509  and  _510
REMARK  206  A    between atoms: _509  and  _512
REMARK  207  A    between atoms: _512  and  _513
REMARK  208  A    between atoms: _513  and  _514
REMARK  209  A    between atoms: _519  and  _521
REMARK  210  A    between atoms: _521  and  _522
REMARK  211  A    between atoms: _521  and  _524
REMARK  212  A    between atoms: _524  and  _525
REMARK  213  A    between atoms: _527  and  _529
REMARK  214  A    between atoms: _529  and  _530
REMARK  215  A    between atoms: _529  and  _532
REMARK  216  A    between atoms: _532  and  _533
REMARK  217  A    between atoms: _538  and  _540
REMARK  218  A    between atoms: _540  and  _541
REMARK  219  A    between atoms: _540  and  _543
REMARK  220  A    between atoms: _543  and  _544
REMARK  221  A    between atoms: _546  and  _548
REMARK  222  A    between atoms: _548  and  _549
REMARK  223  A    between atoms: _548  and  _551
REMARK  224  A    between atoms: _551  and  _552
REMARK  225  A    between atoms: _555  and  _557
REMARK  226  A    between atoms: _557  and  _558
REMARK  227  A    between atoms: _557  and  _560
REMARK  228  A    between atoms: _560  and  _561
REMARK  229  A    between atoms: _567  and  _569
REMARK  230  A    between atoms: _569  and  _570
REMARK  231  A    between atoms: _569  and  _572
REMARK  232  A    between atoms: _572  and  _573
REMARK  233  A    between atoms: _575  and  _577
REMARK  234  A    between atoms: _577  and  _578
REMARK  235  A    between atoms: _577  and  _580
REMARK  236  A    between atoms: _580  and  _581
REMARK  237  A    between atoms: _584  and  _586
REMARK  238  A    between atoms: _586  and  _587
REMARK  239  A    between atoms: _586  and  _589
REMARK  240  A    between atoms: _589  and  _590
REMARK  241  A    between atoms: _596  and  _598
REMARK  242  A    between atoms: _598  and  _599
REMARK  243  A    between atoms: _601  and  _603
REMARK  244  A    between atoms: _603  and  _604
REMARK  245  A    between atoms: _603  and  _606
REMARK  246  A    between atoms: _606  and  _607
REMARK                            x       y       z     vdW  Elec       q    Type
REMARK                         _______ _______ _______ _____ _____    ______ ____
ROOT
ATOM      1  O   HOH     1      19.471   9.367  14.934  0.00  0.00    +0.000 OA
ENDROOT
TORSDOF 0
REMARK  Name = ../refined-set-2016/1ppl/1ppl_pocket.pdb
REMARK  246 active torsions:
REMARK  status: ('A' for Active; 'I' for Inactive)
REMARK    1  A    between atoms: _1  and  _3
REMARK    2  A    between atoms: _3  and  _4
REMARK    3  A    between atoms: _3  and  _6
REMARK    4  A    between atoms: _6  and  _7
REMARK    5  A    between atoms: _10  and  _12
REMARK    6  A    between atoms: _12  and  _13
REMARK    7  A    between atoms: _16  and  _18
REMARK    8  A    between atoms: _18  and  _19
REMARK    9  A    between atoms: _18  and  _21
REMARK   10  A    between atoms: _21  and  _22
REMARK   11  A    between atoms: _27  and  _29
REMARK   12  A    between atoms: _29  and  _30
REMARK   13  A    between atoms: _29  and  _32
REMARK   14  A    between atoms: _32  and  _33
REMARK   15  A    between atoms: _36  and  _38
REMARK   16  A    between atoms: _38  and  _39
REMARK   17  A    between atoms: _38  and  _41
REMARK   18  A    between atoms: _41  and  _42
REMARK   19  A    between atoms: _42  and  _43
REMARK   20  A    between atoms: _46  and  _48
REMARK   21  A    between atoms: _48  and  _49
REMARK   22  A    between atoms: _48  and  _51
REMARK   23  A    between atoms: _51  and  _52
REMARK   24  A    between atoms: _52  and  _53
REMARK   25  A    between atoms: _56  and  _58
REMARK   26  A    between atoms: _58  and  _59
REMARK   27  A    between atoms: _58  and  _61
REMARK   28  A    between atoms: _61  and  _62
REMARK   29  A    between atoms: _67  and  _68
REMARK   30  A    between atoms: _70  and  _72
REMARK   31  A    between atoms: _72  and  _73
REMARK   32  A    between atoms: _72  and  _75
REMARK   33  A    between atoms: _75  and  _76
REMARK   34  A    between atoms: _81  and  _83
REMARK   35  A    between atoms: _83  and  _84
REMARK   36  A    between atoms: _83  and  _86
REMARK   37  A    between atoms: _86  and  _87
REMARK   38  A    between atoms: _93  and  _95
REMARK   39  A    between atoms: _95  and  _96
REMARK   40  A    between atoms: _95  and  _98
REMARK   41  A    between atoms: _98  and  _99
REMARK   42  A    between atoms: _102  and  _104
REMARK   43  A    between atoms: _104  and  _105
REMARK   44  A    between atoms: _104  and  _107
REMARK   45  A    between atoms: _107  and  _108
REMARK   46  A    between atoms: _111  and  _113
REMARK   47  A    between atoms: _113  and  _114
REMARK   48  A    between atoms: _116  and  _118
REMARK   49  A    between atoms: _118  and  _119
REMARK   50  A    between atoms: _118  and  _121
REMARK   51  A    between atoms: _121  and  _122
REMARK   52  A    between atoms: _124  and  _126
REMARK   53  A    between atoms: _126  and  _127
REMARK   54  A    between atoms: _130  and  _132
REMARK   55  A    between atoms: _132  and  _133
REMARK   56  A    between atoms: _132  and  _135
REMARK   57  A    between atoms: _135  and  _136
REMARK   58  A    between atoms: _139  and  _141
REMARK   59  A    between atoms: _141  and  _142
REMARK   60  A    between atoms: _141  and  _144
REMARK   61  A    between atoms: _144  and  _145
REMARK   62  A    between atoms: _155  and  _157
REMARK   63  A    between atoms: _157  and  _158
REMARK   64  A    between atoms: _157  and  _160
REMARK   65  A    between atoms: _160  and  _161
REMARK   66  A    between atoms: _164  and  _166
REMARK   67  A    between atoms: _166  and  _167
REMARK   68  A    between atoms: _166  and  _169
REMARK   69  A    between atoms: _169  and  _170
REMARK   70  A    between atoms: _172  and  _174
REMARK   71  A    between atoms: _174  and  _175
REMARK   72  A    between atoms: _174  and  _177
REMARK   73  A    between atoms: _177  and  _178
REMARK   74  A    between atoms: _183  and  _184
REMARK   75  A    between atoms: _186  and  _188
REMARK   76  A    between atoms: _188  and  _189
REMARK   77  A    between atoms: _191  and  _193
REMARK   78  A    between atoms: _193  and  _194
REMARK   79  A    between atoms: _193  and  _196
REMARK   80  A    between atoms: _196  and  _197
REMARK   81  A    between atoms: _200  and  _202
REMARK   82  A    between atoms: _202  and  _203
REMARK   83  A    between atoms: _205  and  _207
REMARK   84  A    between atoms: _207  and  _208
REMARK   85  A    between atoms: _207  and  _210
REMARK   86  A    between atoms: _210  and  _211
REMARK   87  A    between atoms: _213  and  _215
REMARK   88  A    between atoms: _215  and  _216
REMARK   89  A    between atoms: _215  and  _218
REMARK   90  A    between atoms: _218  and  _219
REMARK   91  A    between atoms: _221  and  _223
REMARK   92  A    between atoms: _223  and  _224
REMARK   93  A    between atoms: _223  and  _226
REMARK   94  A    between atoms: _226  and  _227
REMARK   95  A    between atoms: _227  and  _228
REMARK   96  A    between atoms: _233  and  _235
REMARK   97  A    between atoms: _235  and  _236
REMARK   98  A    between atoms: _235  and  _238
REMARK   99  A    between atoms: _238  and  _239
REMARK  100  A    between atoms: _245  and  _247
REMARK  101  A    between atoms: _247  and  _248
REMARK  102  A    between atoms: _247  and  _250
REMARK  103  A    between atoms: _250  and  _251
REMARK  104  A    between atoms: _254  and  _256
REMARK  105  A    between atoms: _256  and  _257
REMARK  106  A    between atoms: _256  and  _259
REMARK  107  A    between atoms: _259  and  _260
REMARK  108  A    between atoms: _265  and  _267
REMARK  109  A    between atoms: _267  and  _268
REMARK  110  A    between atoms: _267  and  _270
REMARK  111  A    between atoms: _270  and  _271
REMARK  112  A    between atoms: _276  and  _278
REMARK  113  A    between atoms: _278  and  _279
REMARK  114  A    between atoms: _281  and  _283
REMARK  115  A    between atoms: _283  and  _284
REMARK  116  A    between atoms: _283  and  _286
REMARK  117  A    between atoms: _286  and  _287
REMARK  118  A    between atoms: _290  and  _292
REMARK  119  A    between atoms: _292  and  _293
REMARK  120  A    between atoms: _292  and  _295
REMARK  121  A    between atoms: _295  and  _296
REMARK  122  A    between atoms: _299  and  _301
REMARK  123  A    between atoms: _301  and  _302
REMARK  124  A    between atoms: _304  and  _306
REMARK  125  A    between atoms: _306  and  _307
REMARK  126  A    between atoms: _306  and  _309
REMARK  127  A    between atoms: _309  and  _310
REMARK  128  A    between atoms: _313  and  _315
REMARK  129  A    between atoms: _315  and  _316
REMARK  130  A    between atoms: _319  and  _321
REMARK  131  A    between atoms: _321  and  _322
REMARK  132  A    between atoms: _321  and  _324
REMARK  133  A    between atoms: _324  and  _325
REMARK  134  A    between atoms: _328  and  _330
REMARK  135  A    between atoms: _330  and  _331
REMARK  136  A    between atoms: _330  and  _333
REMARK  137  A    between atoms: _333  and  _334
REMARK  138  A    between atoms: _337  and  _339
REMARK  139  A    between atoms: _339  and  _340
REMARK  140  A    between atoms: _339  and  _342
REMARK  141  A    between atoms: _342  and  _343
REMARK  142  A    between atoms: _349  and  _351
REMARK  143  A    between atoms: _351  and  _352
REMARK  144  A    between atoms: _351  and  _354
REMARK  145  A    between atoms: _354  and  _355
REMARK  146  A    between atoms: _365  and  _367
REMARK  147  A    between atoms: _367  and  _368
REMARK  148  A    between atoms: _367  and  _370
REMARK  149  A    between atoms: _370  and  _371
REMARK  150  A    between atoms: _374  and  _376
REMARK  151  A    between atoms: _376  and  _377
REMARK  152  A    between atoms: _380  and  _382
REMARK  153  A    between atoms: _382  and  _383
REMARK  154  A    between atoms: _382  and  _385
REMARK  155  A    between atoms: _385  and  _386
REMARK  156  A    between atoms: _389  and  _391
REMARK  157  A    between atoms: _391  and  _392
REMARK  158  A    between atoms: _391  and  _394
REMARK  159  A    between atoms: _394  and  _395
REMARK  160  A    between atoms: _398  and  _400
REMARK  161  A    between atoms: _400  and  _401
REMARK  162  A    between atoms: _403  and  _405
REMARK  163  A    between atoms: _405  and  _406
REMARK  164  A    between atoms: _405  and  _408
REMARK  165  A    between atoms: _408  and  _409
REMARK  166  A    between atoms: _412  and  _414
REMARK  167  A    between atoms: _414  and  _415
REMARK  168  A    between atoms: _414  and  _417
REMARK  169  A    between atoms: _417  and  _418
REMARK  170  A    between atoms: _421  and  _423
REMARK  171  A    between atoms: _423  and  _424
REMARK  172  A    between atoms: _423  and  _426
REMARK  173  A    between atoms: _426  and  _427
REMARK  174  A    between atoms: _430  and  _432
REMARK  175  A    between atoms: _432  and  _433
REMARK  176  A    between atoms: _432  and  _435
REMARK  177  A    between atoms: _435  and  _436
REMARK  178  A    between atoms: _439  and  _441
REMARK  179  A    between atoms: _441  and  _442
REMARK  180  A    between atoms: _441  and  _444
REMARK  181  A    between atoms: _444  and  _445
REMARK  182  A    between atoms: _448  and  _450
REMARK  183  A    between atoms: _450  and  _451
REMARK  184  A    between atoms: _454  and  _456
REMARK  185  A    between atoms: _456  and  _457
REMARK  186  A    between atoms: _459  and  _461
REMARK  187  A    between atoms: _461  and  _462
REMARK  188  A    between atoms: _464  and  _466
REMARK  189  A    between atoms: _466  and  _467
REMARK  190  A    between atoms: _466  and  _469
REMARK  191  A    between atoms: _469  and  _470
REMARK  192  A    between atoms: _475  and  _476
REMARK  193  A    between atoms: _479  and  _480
REMARK  194  A    between atoms: _485  and  _487
REMARK  195  A    between atoms: _487  and  _488
REMARK  196  A    between atoms: _487  and  _490
REMARK  197  A    between atoms: _490  and  _491
REMARK  198  A    between atoms: _493  and  _495
REMARK  199  A    between atoms: _495  and  _496
REMARK  200  A    between atoms: _495  and  _498
REMARK  201  A    between atoms: _498  and  _499
REMARK  202  A    between atoms: _502  and  _504
REMARK  203  A    between atoms: _504  and  _505
REMARK  204  A    between atoms: _507  and  _509
REMARK  205  A    between atoms: _509  and  _510
REMARK  206  A    between atoms: _509  and  _512
REMARK  207  A    between atoms: _512  and  _513
REMARK  208  A    between atoms: _513  and  _514
REMARK  209  A    between atoms: _519  and  _521
REMARK  210  A    between atoms: _521  and  _522
REMARK  211  A    between atoms: _521  and  _524
REMARK  212  A    between atoms: _524  and  _525
REMARK  213  A    between atoms: _527  and  _529
REMARK  214  A    between atoms: _529  and  _530
REMARK  215  A    between atoms: _529  and  _532
REMARK  216  A    between atoms: _532  and  _533
REMARK  217  A    between atoms: _538  and  _540
REMARK  218  A    between atoms: _540  and  _541
REMARK  219  A    between atoms: _540  and  _543
REMARK  220  A    between atoms: _543  and  _544
REMARK  221  A    between atoms: _546  and  _548
REMARK  222  A    between atoms: _548  and  _549
REMARK  223  A    between atoms: _548  and  _551
REMARK  224  A    between atoms: _551  and  _552
REMARK  225  A    between atoms: _555  and  _557
REMARK  226  A    between atoms: _557  and  _558
REMARK  227  A    between atoms: _557  and  _560
REMARK  228  A    between atoms: _560  and  _561
REMARK  229  A    between atoms: _567  and  _569
REMARK  230  A    between atoms: _569  and  _570
REMARK  231  A    between atoms: _569  and  _572
REMARK  232  A    between atoms: _572  and  _573
REMARK  233  A    between atoms: _575  and  _577
REMARK  234  A    between atoms: _577  and  _578
REMARK  235  A    between atoms: _577  and  _580
REMARK  236  A    between atoms: _580  and  _581
REMARK  237  A    between atoms: _584  and  _586
REMARK  238  A    between atoms: _586  and  _587
REMARK  239  A    between atoms: _586  and  _589
REMARK  240  A    between atoms: _589  and  _590
REMARK  241  A    between atoms: _596  and  _598
REMARK  242  A    between atoms: _598  and  _599
REMARK  243  A    between atoms: _601  and  _603
REMARK  244  A    between atoms: _603  and  _604
REMARK  245  A    between atoms: _603  and  _606
REMARK  246  A    between atoms: _606  and  _607
REMARK                            x       y       z     vdW  Elec       q    Type
REMARK                         _______ _______ _______ _____ _____    ______ ____
ROOT
ATOM      1  O   HOH     1      27.789   1.620  14.823  0.00  0.00    +0.000 OA
ENDROOT
TORSDOF 0
REMARK  Name = ../refined-set-2016/1ppl/1ppl_pocket.pdb
REMARK  246 active torsions:
REMARK  status: ('A' for Active; 'I' for Inactive)
REMARK    1  A    between atoms: _1  and  _3
REMARK    2  A    between atoms: _3  and  _4
REMARK    3  A    between atoms: _3  and  _6
REMARK    4  A    between atoms: _6  and  _7
REMARK    5  A    between atoms: _10  and  _12
REMARK    6  A    between atoms: _12  and  _13
REMARK    7  A    between atoms: _16  and  _18
REMARK    8  A    between atoms: _18  and  _19
REMARK    9  A    between atoms: _18  and  _21
REMARK   10  A    between atoms: _21  and  _22
REMARK   11  A    between atoms: _27  and  _29
REMARK   12  A    between atoms: _29  and  _30
REMARK   13  A    between atoms: _29  and  _32
REMARK   14  A    between atoms: _32  and  _33
REMARK   15  A    between atoms: _36  and  _38
REMARK   16  A    between atoms: _38  and  _39
REMARK   17  A    between atoms: _38  and  _41
REMARK   18  A    between atoms: _41  and  _42
REMARK   19  A    between atoms: _42  and  _43
REMARK   20  A    between atoms: _46  and  _48
REMARK   21  A    between atoms: _48  and  _49
REMARK   22  A    between atoms: _48  and  _51
REMARK   23  A    between atoms: _51  and  _52
REMARK   24  A    between atoms: _52  and  _53
REMARK   25  A    between atoms: _56  and  _58
REMARK   26  A    between atoms: _58  and  _59
REMARK   27  A    between atoms: _58  and  _61
REMARK   28  A    between atoms: _61  and  _62
REMARK   29  A    between atoms: _67  and  _68
REMARK   30  A    between atoms: _70  and  _72
REMARK   31  A    between atoms: _72  and  _73
REMARK   32  A    between atoms: _72  and  _75
REMARK   33  A    between atoms: _75  and  _76
REMARK   34  A    between atoms: _81  and  _83
REMARK   35  A    between atoms: _83  and  _84
REMARK   36  A    between atoms: _83  and  _86
REMARK   37  A    between atoms: _86  and  _87
REMARK   38  A    between atoms: _93  and  _95
REMARK   39  A    between atoms: _95  and  _96
REMARK   40  A    between atoms: _95  and  _98
REMARK   41  A    between atoms: _98  and  _99
REMARK   42  A    between atoms: _102  and  _104
REMARK   43  A    between atoms: _104  and  _105
REMARK   44  A    between atoms: _104  and  _107
REMARK   45  A    between atoms: _107  and  _108
REMARK   46  A    between atoms: _111  and  _113
REMARK   47  A    between atoms: _113  and  _114
REMARK   48  A    between atoms: _116  and  _118
REMARK   49  A    between atoms: _118  and  _119
REMARK   50  A    between atoms: _118  and  _121
REMARK   51  A    between atoms: _121  and  _122
REMARK   52  A    between atoms: _124  and  _126
REMARK   53  A    between atoms: _126  and  _127
REMARK   54  A    between atoms: _130  and  _132
REMARK   55  A    between atoms: _132  and  _133
REMARK   56  A    between atoms: _132  and  _135
REMARK   57  A    between atoms: _135  and  _136
REMARK   58  A    between atoms: _139  and  _141
REMARK   59  A    between atoms: _141  and  _142
REMARK   60  A    between atoms: _141  and  _144
REMARK   61  A    between atoms: _144  and  _145
REMARK   62  A    between atoms: _155  and  _157
REMARK   63  A    between atoms: _157  and  _158
REMARK   64  A    between atoms: _157  and  _160
REMARK   65  A    between atoms: _160  and  _161
REMARK   66  A    between atoms: _164  and  _166
REMARK   67  A    between atoms: _166  and  _167
REMARK   68  A    between atoms: _166  and  _169
REMARK   69  A    between atoms: _169  and  _170
REMARK   70  A    between atoms: _172  and  _174
REMARK   71  A    between atoms: _174  and  _175
REMARK   72  A    between atoms: _174  and  _177
REMARK   73  A    between atoms: _177  and  _178
REMARK   74  A    between atoms: _183  and  _184
REMARK   75  A    between atoms: _186  and  _188
REMARK   76  A    between atoms: _188  and  _189
REMARK   77  A    between atoms: _191  and  _193
REMARK   78  A    between atoms: _193  and  _194
REMARK   79  A    between atoms: _193  and  _196
REMARK   80  A    between atoms: _196  and  _197
REMARK   81  A    between atoms: _200  and  _202
REMARK   82  A    between atoms: _202  and  _203
REMARK   83  A    between atoms: _205  and  _207
REMARK   84  A    between atoms: _207  and  _208
REMARK   85  A    between atoms: _207  and  _210
REMARK   86  A    between atoms: _210  and  _211
REMARK   87  A    between atoms: _213  and  _215
REMARK   88  A    between atoms: _215  and  _216
REMARK   89  A    between atoms: _215  and  _218
REMARK   90  A    between atoms: _218  and  _219
REMARK   91  A    between atoms: _221  and  _223
REMARK   92  A    between atoms: _223  and  _224
REMARK   93  A    between atoms: _223  and  _226
REMARK   94  A    between atoms: _226  and  _227
REMARK   95  A    between atoms: _227  and  _228
REMARK   96  A    between atoms: _233  and  _235
REMARK   97  A    between atoms: _235  and  _236
REMARK   98  A    between atoms: _235  and  _238
REMARK   99  A    between atoms: _238  and  _239
REMARK  100  A    between atoms: _245  and  _247
REMARK  101  A    between atoms: _247  and  _248
REMARK  102  A    between atoms: _247  and  _250
REMARK  103  A    between atoms: _250  and  _251
REMARK  104  A    between atoms: _254  and  _256
REMARK  105  A    between atoms: _256  and  _257
REMARK  106  A    between atoms: _256  and  _259
REMARK  107  A    between atoms: _259  and  _260
REMARK  108  A    between atoms: _265  and  _267
REMARK  109  A    between atoms: _267  and  _268
REMARK  110  A    between atoms: _267  and  _270
REMARK  111  A    between atoms: _270  and  _271
REMARK  112  A    between atoms: _276  and  _278
REMARK  113  A    between atoms: _278  and  _279
REMARK  114  A    between atoms: _281  and  _283
REMARK  115  A    between atoms: _283  and  _284
REMARK  116  A    between atoms: _283  and  _286
REMARK  117  A    between atoms: _286  and  _287
REMARK  118  A    between atoms: _290  and  _292
REMARK  119  A    between atoms: _292  and  _293
REMARK  120  A    between atoms: _292  and  _295
REMARK  121  A    between atoms: _295  and  _296
REMARK  122  A    between atoms: _299  and  _301
REMARK  123  A    between atoms: _301  and  _302
REMARK  124  A    between atoms: _304  and  _306
REMARK  125  A    between atoms: _306  and  _307
REMARK  126  A    between atoms: _306  and  _309
REMARK  127  A    between atoms: _309  and  _310
REMARK  128  A    between atoms: _313  and  _315
REMARK  129  A    between atoms: _315  and  _316
REMARK  130  A    between atoms: _319  and  _321
REMARK  131  A    between atoms: _321  and  _322
REMARK  132  A    between atoms: _321  and  _324
REMARK  133  A    between atoms: _324  and  _325
REMARK  134  A    between atoms: _328  and  _330
REMARK  135  A    between atoms: _330  and  _331
REMARK  136  A    between atoms: _330  and  _333
REMARK  137  A    between atoms: _333  and  _334
REMARK  138  A    between atoms: _337  and  _339
REMARK  139  A    between atoms: _339  and  _340
REMARK  140  A    between atoms: _339  and  _342
REMARK  141  A    between atoms: _342  and  _343
REMARK  142  A    between atoms: _349  and  _351
REMARK  143  A    between atoms: _351  and  _352
REMARK  144  A    between atoms: _351  and  _354
REMARK  145  A    between atoms: _354  and  _355
REMARK  146  A    between atoms: _365  and  _367
REMARK  147  A    between atoms: _367  and  _368
REMARK  148  A    between atoms: _367  and  _370
REMARK  149  A    between atoms: _370  and  _371
REMARK  150  A    between atoms: _374  and  _376
REMARK  151  A    between atoms: _376  and  _377
REMARK  152  A    between atoms: _380  and  _382
REMARK  153  A    between atoms: _382  and  _383
REMARK  154  A    between atoms: _382  and  _385
REMARK  155  A    between atoms: _385  and  _386
REMARK  156  A    between atoms: _389  and  _391
REMARK  157  A    between atoms: _391  and  _392
REMARK  158  A    between atoms: _391  and  _394
REMARK  159  A    between atoms: _394  and  _395
REMARK  160  A    between atoms: _398  and  _400
REMARK  161  A    between atoms: _400  and  _401
REMARK  162  A    between atoms: _403  and  _405
REMARK  163  A    between atoms: _405  and  _406
REMARK  164  A    between atoms: _405  and  _408
REMARK  165  A    between atoms: _408  and  _409
REMARK  166  A    between atoms: _412  and  _414
REMARK  167  A    between atoms: _414  and  _415
REMARK  168  A    between atoms: _414  and  _417
REMARK  169  A    between atoms: _417  and  _418
REMARK  170  A    between atoms: _421  and  _423
REMARK  171  A    between atoms: _423  and  _424
REMARK  172  A    between atoms: _423  and  _426
REMARK  173  A    between atoms: _426  and  _427
REMARK  174  A    between atoms: _430  and  _432
REMARK  175  A    between atoms: _432  and  _433
REMARK  176  A    between atoms: _432  and  _435
REMARK  177  A    between atoms: _435  and  _436
REMARK  178  A    between atoms: _439  and  _441
REMARK  179  A    between atoms: _441  and  _442
REMARK  180  A    between atoms: _441  and  _444
REMARK  181  A    between atoms: _444  and  _445
REMARK  182  A    between atoms: _448  and  _450
REMARK  183  A    between atoms: _450  and  _451
REMARK  184  A    between atoms: _454  and  _456
REMARK  185  A    between atoms: _456  and  _457
REMARK  186  A    between atoms: _459  and  _461
REMARK  187  A    between atoms: _461  and  _462
REMARK  188  A    between atoms: _464  and  _466
REMARK  189  A    between atoms: _466  and  _467
REMARK  190  A    between atoms: _466  and  _469
REMARK  191  A    between atoms: _469  and  _470
REMARK  192  A    between atoms: _475  and  _476
REMARK  193  A    between atoms: _479  and  _480
REMARK  194  A    between atoms: _485  and  _487
REMARK  195  A    between atoms: _487  and  _488
REMARK  196  A    between atoms: _487  and  _490
REMARK  197  A    between atoms: _490  and  _491
REMARK  198  A    between atoms: _493  and  _495
REMARK  199  A    between atoms: _495  and  _496
REMARK  200  A    between atoms: _495  and  _498
REMARK  201  A    between atoms: _498  and  _499
REMARK  202  A    between atoms: _502  and  _504
REMARK  203  A    between atoms: _504  and  _505
REMARK  204  A    between atoms: _507  and  _509
REMARK  205  A    between atoms: _509  and  _510
REMARK  206  A    between atoms: _509  and  _512
REMARK  207  A    between atoms: _512  and  _513
REMARK  208  A    between atoms: _513  and  _514
REMARK  209  A    between atoms: _519  and  _521
REMARK  210  A    between atoms: _521  and  _522
REMARK  211  A    between atoms: _521  and  _524
REMARK  212  A    between atoms: _524  and  _525
REMARK  213  A    between atoms: _527  and  _529
REMARK  214  A    between atoms: _529  and  _530
REMARK  215  A    between atoms: _529  and  _532
REMARK  216  A    between atoms: _532  and  _533
REMARK  217  A    between atoms: _538  and  _540
REMARK  218  A    between atoms: _540  and  _541
REMARK  219  A    between atoms: _540  and  _543
REMARK  220  A    between atoms: _543  and  _544
REMARK  221  A    between atoms: _546  and  _548
REMARK  222  A    between atoms: _548  and  _549
REMARK  223  A    between atoms: _548  and  _551
REMARK  224  A    between atoms: _551  and  _552
REMARK  225  A    between atoms: _555  and  _557
REMARK  226  A    between atoms: _557  and  _558
REMARK  227  A    between atoms: _557  and  _560
REMARK  228  A    between atoms: _560  and  _561
REMARK  229  A    between atoms: _567  and  _569
REMARK  230  A    between atoms: _569  and  _570
REMARK  231  A    between atoms: _569  and  _572
REMARK  232  A    between atoms: _572  and  _573
REMARK  233  A    between atoms: _575  and  _577
REMARK  234  A    between atoms: _577  and  _578
REMARK  235  A    between atoms: _577  and  _580
REMARK  236  A    between atoms: _580  and  _581
REMARK  237  A    between atoms: _584  and  _586
REMARK  238  A    between atoms: _586  and  _587
REMARK  239  A    between atoms: _586  and  _589
REMARK  240  A    between atoms: _589  and  _590
REMARK  241  A    between atoms: _596  and  _598
REMARK  242  A    between atoms: _598  and  _599
REMARK  243  A    between atoms: _601  and  _603
REMARK  244  A    between atoms: _603  and  _604
REMARK  245  A    between atoms: _603  and  _606
REMARK  246  A    between atoms: _606  and  _607
REMARK                            x       y       z     vdW  Elec       q    Type
REMARK                         _______ _______ _______ _____ _____    ______ ____
ROOT
ATOM      1  O   HOH     1      16.802  10.618  27.937  0.00  0.00    +0.000 OA
ENDROOT
TORSDOF 0
REMARK  Name = ../refined-set-2016/1ppl/1ppl_pocket.pdb
REMARK  246 active torsions:
REMARK  status: ('A' for Active; 'I' for Inactive)
REMARK    1  A    between atoms: _1  and  _3
REMARK    2  A    between atoms: _3  and  _4
REMARK    3  A    between atoms: _3  and  _6
REMARK    4  A    between atoms: _6  and  _7
REMARK    5  A    between atoms: _10  and  _12
REMARK    6  A    between atoms: _12  and  _13
REMARK    7  A    between atoms: _16  and  _18
REMARK    8  A    between atoms: _18  and  _19
REMARK    9  A    between atoms: _18  and  _21
REMARK   10  A    between atoms: _21  and  _22
REMARK   11  A    between atoms: _27  and  _29
REMARK   12  A    between atoms: _29  and  _30
REMARK   13  A    between atoms: _29  and  _32
REMARK   14  A    between atoms: _32  and  _33
REMARK   15  A    between atoms: _36  and  _38
REMARK   16  A    between atoms: _38  and  _39
REMARK   17  A    between atoms: _38  and  _41
REMARK   18  A    between atoms: _41  and  _42
REMARK   19  A    between atoms: _42  and  _43
REMARK   20  A    between atoms: _46  and  _48
REMARK   21  A    between atoms: _48  and  _49
REMARK   22  A    between atoms: _48  and  _51
REMARK   23  A    between atoms: _51  and  _52
REMARK   24  A    between atoms: _52  and  _53
REMARK   25  A    between atoms: _56  and  _58
REMARK   26  A    between atoms: _58  and  _59
REMARK   27  A    between atoms: _58  and  _61
REMARK   28  A    between atoms: _61  and  _62
REMARK   29  A    between atoms: _67  and  _68
REMARK   30  A    between atoms: _70  and  _72
REMARK   31  A    between atoms: _72  and  _73
REMARK   32  A    between atoms: _72  and  _75
REMARK   33  A    between atoms: _75  and  _76
REMARK   34  A    between atoms: _81  and  _83
REMARK   35  A    between atoms: _83  and  _84
REMARK   36  A    between atoms: _83  and  _86
REMARK   37  A    between atoms: _86  and  _87
REMARK   38  A    between atoms: _93  and  _95
REMARK   39  A    between atoms: _95  and  _96
REMARK   40  A    between atoms: _95  and  _98
REMARK   41  A    between atoms: _98  and  _99
REMARK   42  A    between atoms: _102  and  _104
REMARK   43  A    between atoms: _104  and  _105
REMARK   44  A    between atoms: _104  and  _107
REMARK   45  A    between atoms: _107  and  _108
REMARK   46  A    between atoms: _111  and  _113
REMARK   47  A    between atoms: _113  and  _114
REMARK   48  A    between atoms: _116  and  _118
REMARK   49  A    between atoms: _118  and  _119
REMARK   50  A    between atoms: _118  and  _121
REMARK   51  A    between atoms: _121  and  _122
REMARK   52  A    between atoms: _124  and  _126
REMARK   53  A    between atoms: _126  and  _127
REMARK   54  A    between atoms: _130  and  _132
REMARK   55  A    between atoms: _132  and  _133
REMARK   56  A    between atoms: _132  and  _135
REMARK   57  A    between atoms: _135  and  _136
REMARK   58  A    between atoms: _139  and  _141
REMARK   59  A    between atoms: _141  and  _142
REMARK   60  A    between atoms: _141  and  _144
REMARK   61  A    between atoms: _144  and  _145
REMARK   62  A    between atoms: _155  and  _157
REMARK   63  A    between atoms: _157  and  _158
REMARK   64  A    between atoms: _157  and  _160
REMARK   65  A    between atoms: _160  and  _161
REMARK   66  A    between atoms: _164  and  _166
REMARK   67  A    between atoms: _166  and  _167
REMARK   68  A    between atoms: _166  and  _169
REMARK   69  A    between atoms: _169  and  _170
REMARK   70  A    between atoms: _172  and  _174
REMARK   71  A    between atoms: _174  and  _175
REMARK   72  A    between atoms: _174  and  _177
REMARK   73  A    between atoms: _177  and  _178
REMARK   74  A    between atoms: _183  and  _184
REMARK   75  A    between atoms: _186  and  _188
REMARK   76  A    between atoms: _188  and  _189
REMARK   77  A    between atoms: _191  and  _193
REMARK   78  A    between atoms: _193  and  _194
REMARK   79  A    between atoms: _193  and  _196
REMARK   80  A    between atoms: _196  and  _197
REMARK   81  A    between atoms: _200  and  _202
REMARK   82  A    between atoms: _202  and  _203
REMARK   83  A    between atoms: _205  and  _207
REMARK   84  A    between atoms: _207  and  _208
REMARK   85  A    between atoms: _207  and  _210
REMARK   86  A    between atoms: _210  and  _211
REMARK   87  A    between atoms: _213  and  _215
REMARK   88  A    between atoms: _215  and  _216
REMARK   89  A    between atoms: _215  and  _218
REMARK   90  A    between atoms: _218  and  _219
REMARK   91  A    between atoms: _221  and  _223
REMARK   92  A    between atoms: _223  and  _224
REMARK   93  A    between atoms: _223  and  _226
REMARK   94  A    between atoms: _226  and  _227
REMARK   95  A    between atoms: _227  and  _228
REMARK   96  A    between atoms: _233  and  _235
REMARK   97  A    between atoms: _235  and  _236
REMARK   98  A    between atoms: _235  and  _238
REMARK   99  A    between atoms: _238  and  _239
REMARK  100  A    between atoms: _245  and  _247
REMARK  101  A    between atoms: _247  and  _248
REMARK  102  A    between atoms: _247  and  _250
REMARK  103  A    between atoms: _250  and  _251
REMARK  104  A    between atoms: _254  and  _256
REMARK  105  A    between atoms: _256  and  _257
REMARK  106  A    between atoms: _256  and  _259
REMARK  107  A    between atoms: _259  and  _260
REMARK  108  A    between atoms: _265  and  _267
REMARK  109  A    between atoms: _267  and  _268
REMARK  110  A    between atoms: _267  and  _270
REMARK  111  A    between atoms: _270  and  _271
REMARK  112  A    between atoms: _276  and  _278
REMARK  113  A    between atoms: _278  and  _279
REMARK  114  A    between atoms: _281  and  _283
REMARK  115  A    between atoms: _283  and  _284
REMARK  116  A    between atoms: _283  and  _286
REMARK  117  A    between atoms: _286  and  _287
REMARK  118  A    between atoms: _290  and  _292
REMARK  119  A    between atoms: _292  and  _293
REMARK  120  A    between atoms: _292  and  _295
REMARK  121  A    between atoms: _295  and  _296
REMARK  122  A    between atoms: _299  and  _301
REMARK  123  A    between atoms: _301  and  _302
REMARK  124  A    between atoms: _304  and  _306
REMARK  125  A    between atoms: _306  and  _307
REMARK  126  A    between atoms: _306  and  _309
REMARK  127  A    between atoms: _309  and  _310
REMARK  128  A    between atoms: _313  and  _315
REMARK  129  A    between atoms: _315  and  _316
REMARK  130  A    between atoms: _319  and  _321
REMARK  131  A    between atoms: _321  and  _322
REMARK  132  A    between atoms: _321  and  _324
REMARK  133  A    between atoms: _324  and  _325
REMARK  134  A    between atoms: _328  and  _330
REMARK  135  A    between atoms: _330  and  _331
REMARK  136  A    between atoms: _330  and  _333
REMARK  137  A    between atoms: _333  and  _334
REMARK  138  A    between atoms: _337  and  _339
REMARK  139  A    between atoms: _339  and  _340
REMARK  140  A    between atoms: _339  and  _342
REMARK  141  A    between atoms: _342  and  _343
REMARK  142  A    between atoms: _349  and  _351
REMARK  143  A    between atoms: _351  and  _352
REMARK  144  A    between atoms: _351  and  _354
REMARK  145  A    between atoms: _354  and  _355
REMARK  146  A    between atoms: _365  and  _367
REMARK  147  A    between atoms: _367  and  _368
REMARK  148  A    between atoms: _367  and  _370
REMARK  149  A    between atoms: _370  and  _371
REMARK  150  A    between atoms: _374  and  _376
REMARK  151  A    between atoms: _376  and  _377
REMARK  152  A    between atoms: _380  and  _382
REMARK  153  A    between atoms: _382  and  _383
REMARK  154  A    between atoms: _382  and  _385
REMARK  155  A    between atoms: _385  and  _386
REMARK  156  A    between atoms: _389  and  _391
REMARK  157  A    between atoms: _391  and  _392
REMARK  158  A    between atoms: _391  and  _394
REMARK  159  A    between atoms: _394  and  _395
REMARK  160  A    between atoms: _398  and  _400
REMARK  161  A    between atoms: _400  and  _401
REMARK  162  A    between atoms: _403  and  _405
REMARK  163  A    between atoms: _405  and  _406
REMARK  164  A    between atoms: _405  and  _408
REMARK  165  A    between atoms: _408  and  _409
REMARK  166  A    between atoms: _412  and  _414
REMARK  167  A    between atoms: _414  and  _415
REMARK  168  A    between atoms: _414  and  _417
REMARK  169  A    between atoms: _417  and  _418
REMARK  170  A    between atoms: _421  and  _423
REMARK  171  A    between atoms: _423  and  _424
REMARK  172  A    between atoms: _423  and  _426
REMARK  173  A    between atoms: _426  and  _427
REMARK  174  A    between atoms: _430  and  _432
REMARK  175  A    between atoms: _432  and  _433
REMARK  176  A    between atoms: _432  and  _435
REMARK  177  A    between atoms: _435  and  _436
REMARK  178  A    between atoms: _439  and  _441
REMARK  179  A    between atoms: _441  and  _442
REMARK  180  A    between atoms: _441  and  _444
REMARK  181  A    between atoms: _444  and  _445
REMARK  182  A    between atoms: _448  and  _450
REMARK  183  A    between atoms: _450  and  _451
REMARK  184  A    between atoms: _454  and  _456
REMARK  185  A    between atoms: _456  and  _457
REMARK  186  A    between atoms: _459  and  _461
REMARK  187  A    between atoms: _461  and  _462
REMARK  188  A    between atoms: _464  and  _466
REMARK  189  A    between atoms: _466  and  _467
REMARK  190  A    between atoms: _466  and  _469
REMARK  191  A    between atoms: _469  and  _470
REMARK  192  A    between atoms: _475  and  _476
REMARK  193  A    between atoms: _479  and  _480
REMARK  194  A    between atoms: _485  and  _487
REMARK  195  A    between atoms: _487  and  _488
REMARK  196  A    between atoms: _487  and  _490
REMARK  197  A    between atoms: _490  and  _491
REMARK  198  A    between atoms: _493  and  _495
REMARK  199  A    between atoms: _495  and  _496
REMARK  200  A    between atoms: _495  and  _498
REMARK  201  A    between atoms: _498  and  _499
REMARK  202  A    between atoms: _502  and  _504
REMARK  203  A    between atoms: _504  and  _505
REMARK  204  A    between atoms: _507  and  _509
REMARK  205  A    between atoms: _509  and  _510
REMARK  206  A    between atoms: _509  and  _512
REMARK  207  A    between atoms: _512  and  _513
REMARK  208  A    between atoms: _513  and  _514
REMARK  209  A    between atoms: _519  and  _521
REMARK  210  A    between atoms: _521  and  _522
REMARK  211  A    between atoms: _521  and  _524
REMARK  212  A    between atoms: _524  and  _525
REMARK  213  A    between atoms: _527  and  _529
REMARK  214  A    between atoms: _529  and  _530
REMARK  215  A    between atoms: _529  and  _532
REMARK  216  A    between atoms: _532  and  _533
REMARK  217  A    between atoms: _538  and  _540
REMARK  218  A    between atoms: _540  and  _541
REMARK  219  A    between atoms: _540  and  _543
REMARK  220  A    between atoms: _543  and  _544
REMARK  221  A    between atoms: _546  and  _548
REMARK  222  A    between atoms: _548  and  _549
REMARK  223  A    between atoms: _548  and  _551
REMARK  224  A    between atoms: _551  and  _552
REMARK  225  A    between atoms: _555  and  _557
REMARK  226  A    between atoms: _557  and  _558
REMARK  227  A    between atoms: _557  and  _560
REMARK  228  A    between atoms: _560  and  _561
REMARK  229  A    between atoms: _567  and  _569
REMARK  230  A    between atoms: _569  and  _570
REMARK  231  A    between atoms: _569  and  _572
REMARK  232  A    between atoms: _572  and  _573
REMARK  233  A    between atoms: _575  and  _577
REMARK  234  A    between atoms: _577  and  _578
REMARK  235  A    between atoms: _577  and  _580
REMARK  236  A    between atoms: _580  and  _581
REMARK  237  A    between atoms: _584  and  _586
REMARK  238  A    between atoms: _586  and  _587
REMARK  239  A    between atoms: _586  and  _589
REMARK  240  A    between atoms: _589  and  _590
REMARK  241  A    between atoms: _596  and  _598
REMARK  242  A    between atoms: _598  and  _599
REMARK  243  A    between atoms: _601  and  _603
REMARK  244  A    between atoms: _603  and  _604
REMARK  245  A    between atoms: _603  and  _606
REMARK  246  A    between atoms: _606  and  _607
REMARK                            x       y       z     vdW  Elec       q    Type
REMARK                         _______ _______ _______ _____ _____    ______ ____
ROOT
ATOM      1  O   HOH     1      12.263   7.252  25.617  0.00  0.00    +0.000 OA
ENDROOT
TORSDOF 0
REMARK  Name = ../refined-set-2016/1ppl/1ppl_pocket.pdb
REMARK  246 active torsions:
REMARK  status: ('A' for Active; 'I' for Inactive)
REMARK    1  A    between atoms: _1  and  _3
REMARK    2  A    between atoms: _3  and  _4
REMARK    3  A    between atoms: _3  and  _6
REMARK    4  A    between atoms: _6  and  _7
REMARK    5  A    between atoms: _10  and  _12
REMARK    6  A    between atoms: _12  and  _13
REMARK    7  A    between atoms: _16  and  _18
REMARK    8  A    between atoms: _18  and  _19
REMARK    9  A    between atoms: _18  and  _21
REMARK   10  A    between atoms: _21  and  _22
REMARK   11  A    between atoms: _27  and  _29
REMARK   12  A    between atoms: _29  and  _30
REMARK   13  A    between atoms: _29  and  _32
REMARK   14  A    between atoms: _32  and  _33
REMARK   15  A    between atoms: _36  and  _38
REMARK   16  A    between atoms: _38  and  _39
REMARK   17  A    between atoms: _38  and  _41
REMARK   18  A    between atoms: _41  and  _42
REMARK   19  A    between atoms: _42  and  _43
REMARK   20  A    between atoms: _46  and  _48
REMARK   21  A    between atoms: _48  and  _49
REMARK   22  A    between atoms: _48  and  _51
REMARK   23  A    between atoms: _51  and  _52
REMARK   24  A    between atoms: _52  and  _53
REMARK   25  A    between atoms: _56  and  _58
REMARK   26  A    between atoms: _58  and  _59
REMARK   27  A    between atoms: _58  and  _61
REMARK   28  A    between atoms: _61  and  _62
REMARK   29  A    between atoms: _67  and  _68
REMARK   30  A    between atoms: _70  and  _72
REMARK   31  A    between atoms: _72  and  _73
REMARK   32  A    between atoms: _72  and  _75
REMARK   33  A    between atoms: _75  and  _76
REMARK   34  A    between atoms: _81  and  _83
REMARK   35  A    between atoms: _83  and  _84
REMARK   36  A    between atoms: _83  and  _86
REMARK   37  A    between atoms: _86  and  _87
REMARK   38  A    between atoms: _93  and  _95
REMARK   39  A    between atoms: _95  and  _96
REMARK   40  A    between atoms: _95  and  _98
REMARK   41  A    between atoms: _98  and  _99
REMARK   42  A    between atoms: _102  and  _104
REMARK   43  A    between atoms: _104  and  _105
REMARK   44  A    between atoms: _104  and  _107
REMARK   45  A    between atoms: _107  and  _108
REMARK   46  A    between atoms: _111  and  _113
REMARK   47  A    between atoms: _113  and  _114
REMARK   48  A    between atoms: _116  and  _118
REMARK   49  A    between atoms: _118  and  _119
REMARK   50  A    between atoms: _118  and  _121
REMARK   51  A    between atoms: _121  and  _122
REMARK   52  A    between atoms: _124  and  _126
REMARK   53  A    between atoms: _126  and  _127
REMARK   54  A    between atoms: _130  and  _132
REMARK   55  A    between atoms: _132  and  _133
REMARK   56  A    between atoms: _132  and  _135
REMARK   57  A    between atoms: _135  and  _136
REMARK   58  A    between atoms: _139  and  _141
REMARK   59  A    between atoms: _141  and  _142
REMARK   60  A    between atoms: _141  and  _144
REMARK   61  A    between atoms: _144  and  _145
REMARK   62  A    between atoms: _155  and  _157
REMARK   63  A    between atoms: _157  and  _158
REMARK   64  A    between atoms: _157  and  _160
REMARK   65  A    between atoms: _160  and  _161
REMARK   66  A    between atoms: _164  and  _166
REMARK   67  A    between atoms: _166  and  _167
REMARK   68  A    between atoms: _166  and  _169
REMARK   69  A    between atoms: _169  and  _170
REMARK   70  A    between atoms: _172  and  _174
REMARK   71  A    between atoms: _174  and  _175
REMARK   72  A    between atoms: _174  and  _177
REMARK   73  A    between atoms: _177  and  _178
REMARK   74  A    between atoms: _183  and  _184
REMARK   75  A    between atoms: _186  and  _188
REMARK   76  A    between atoms: _188  and  _189
REMARK   77  A    between atoms: _191  and  _193
REMARK   78  A    between atoms: _193  and  _194
REMARK   79  A    between atoms: _193  and  _196
REMARK   80  A    between atoms: _196  and  _197
REMARK   81  A    between atoms: _200  and  _202
REMARK   82  A    between atoms: _202  and  _203
REMARK   83  A    between atoms: _205  and  _207
REMARK   84  A    between atoms: _207  and  _208
REMARK   85  A    between atoms: _207  and  _210
REMARK   86  A    between atoms: _210  and  _211
REMARK   87  A    between atoms: _213  and  _215
REMARK   88  A    between atoms: _215  and  _216
REMARK   89  A    between atoms: _215  and  _218
REMARK   90  A    between atoms: _218  and  _219
REMARK   91  A    between atoms: _221  and  _223
REMARK   92  A    between atoms: _223  and  _224
REMARK   93  A    between atoms: _223  and  _226
REMARK   94  A    between atoms: _226  and  _227
REMARK   95  A    between atoms: _227  and  _228
REMARK   96  A    between atoms: _233  and  _235
REMARK   97  A    between atoms: _235  and  _236
REMARK   98  A    between atoms: _235  and  _238
REMARK   99  A    between atoms: _238  and  _239
REMARK  100  A    between atoms: _245  and  _247
REMARK  101  A    between atoms: _247  and  _248
REMARK  102  A    between atoms: _247  and  _250
REMARK  103  A    between atoms: _250  and  _251
REMARK  104  A    between atoms: _254  and  _256
REMARK  105  A    between atoms: _256  and  _257
REMARK  106  A    between atoms: _256  and  _259
REMARK  107  A    between atoms: _259  and  _260
REMARK  108  A    between atoms: _265  and  _267
REMARK  109  A    between atoms: _267  and  _268
REMARK  110  A    between atoms: _267  and  _270
REMARK  111  A    between atoms: _270  and  _271
REMARK  112  A    between atoms: _276  and  _278
REMARK  113  A    between atoms: _278  and  _279
REMARK  114  A    between atoms: _281  and  _283
REMARK  115  A    between atoms: _283  and  _284
REMARK  116  A    between atoms: _283  and  _286
REMARK  117  A    between atoms: _286  and  _287
REMARK  118  A    between atoms: _290  and  _292
REMARK  119  A    between atoms: _292  and  _293
REMARK  120  A    between atoms: _292  and  _295
REMARK  121  A    between atoms: _295  and  _296
REMARK  122  A    between atoms: _299  and  _301
REMARK  123  A    between atoms: _301  and  _302
REMARK  124  A    between atoms: _304  and  _306
REMARK  125  A    between atoms: _306  and  _307
REMARK  126  A    between atoms: _306  and  _309
REMARK  127  A    between atoms: _309  and  _310
REMARK  128  A    between atoms: _313  and  _315
REMARK  129  A    between atoms: _315  and  _316
REMARK  130  A    between atoms: _319  and  _321
REMARK  131  A    between atoms: _321  and  _322
REMARK  132  A    between atoms: _321  and  _324
REMARK  133  A    between atoms: _324  and  _325
REMARK  134  A    between atoms: _328  and  _330
REMARK  135  A    between atoms: _330  and  _331
REMARK  136  A    between atoms: _330  and  _333
REMARK  137  A    between atoms: _333  and  _334
REMARK  138  A    between atoms: _337  and  _339
REMARK  139  A    between atoms: _339  and  _340
REMARK  140  A    between atoms: _339  and  _342
REMARK  141  A    between atoms: _342  and  _343
REMARK  142  A    between atoms: _349  and  _351
REMARK  143  A    between atoms: _351  and  _352
REMARK  144  A    between atoms: _351  and  _354
REMARK  145  A    between atoms: _354  and  _355
REMARK  146  A    between atoms: _365  and  _367
REMARK  147  A    between atoms: _367  and  _368
REMARK  148  A    between atoms: _367  and  _370
REMARK  149  A    between atoms: _370  and  _371
REMARK  150  A    between atoms: _374  and  _376
REMARK  151  A    between atoms: _376  and  _377
REMARK  152  A    between atoms: _380  and  _382
REMARK  153  A    between atoms: _382  and  _383
REMARK  154  A    between atoms: _382  and  _385
REMARK  155  A    between atoms: _385  and  _386
REMARK  156  A    between atoms: _389  and  _391
REMARK  157  A    between atoms: _391  and  _392
REMARK  158  A    between atoms: _391  and  _394
REMARK  159  A    between atoms: _394  and  _395
REMARK  160  A    between atoms: _398  and  _400
REMARK  161  A    between atoms: _400  and  _401
REMARK  162  A    between atoms: _403  and  _405
REMARK  163  A    between atoms: _405  and  _406
REMARK  164  A    between atoms: _405  and  _408
REMARK  165  A    between atoms: _408  and  _409
REMARK  166  A    between atoms: _412  and  _414
REMARK  167  A    between atoms: _414  and  _415
REMARK  168  A    between atoms: _414  and  _417
REMARK  169  A    between atoms: _417  and  _418
REMARK  170  A    between atoms: _421  and  _423
REMARK  171  A    between atoms: _423  and  _424
REMARK  172  A    between atoms: _423  and  _426
REMARK  173  A    between atoms: _426  and  _427
REMARK  174  A    between atoms: _430  and  _432
REMARK  175  A    between atoms: _432  and  _433
REMARK  176  A    between atoms: _432  and  _435
REMARK  177  A    between atoms: _435  and  _436
REMARK  178  A    between atoms: _439  and  _441
REMARK  179  A    between atoms: _441  and  _442
REMARK  180  A    between atoms: _441  and  _444
REMARK  181  A    between atoms: _444  and  _445
REMARK  182  A    between atoms: _448  and  _450
REMARK  183  A    between atoms: _450  and  _451
REMARK  184  A    between atoms: _454  and  _456
REMARK  185  A    between atoms: _456  and  _457
REMARK  186  A    between atoms: _459  and  _461
REMARK  187  A    between atoms: _461  and  _462
REMARK  188  A    between atoms: _464  and  _466
REMARK  189  A    between atoms: _466  and  _467
REMARK  190  A    between atoms: _466  and  _469
REMARK  191  A    between atoms: _469  and  _470
REMARK  192  A    between atoms: _475  and  _476
REMARK  193  A    between atoms: _479  and  _480
REMARK  194  A    between atoms: _485  and  _487
REMARK  195  A    between atoms: _487  and  _488
REMARK  196  A    between atoms: _487  and  _490
REMARK  197  A    between atoms: _490  and  _491
REMARK  198  A    between atoms: _493  and  _495
REMARK  199  A    between atoms: _495  and  _496
REMARK  200  A    between atoms: _495  and  _498
REMARK  201  A    between atoms: _498  and  _499
REMARK  202  A    between atoms: _502  and  _504
REMARK  203  A    between atoms: _504  and  _505
REMARK  204  A    between atoms: _507  and  _509
REMARK  205  A    between atoms: _509  and  _510
REMARK  206  A    between atoms: _509  and  _512
REMARK  207  A    between atoms: _512  and  _513
REMARK  208  A    between atoms: _513  and  _514
REMARK  209  A    between atoms: _519  and  _521
REMARK  210  A    between atoms: _521  and  _522
REMARK  211  A    between atoms: _521  and  _524
REMARK  212  A    between atoms: _524  and  _525
REMARK  213  A    between atoms: _527  and  _529
REMARK  214  A    between atoms: _529  and  _530
REMARK  215  A    between atoms: _529  and  _532
REMARK  216  A    between atoms: _532  and  _533
REMARK  217  A    between atoms: _538  and  _540
REMARK  218  A    between atoms: _540  and  _541
REMARK  219  A    between atoms: _540  and  _543
REMARK  220  A    between atoms: _543  and  _544
REMARK  221  A    between atoms: _546  and  _548
REMARK  222  A    between atoms: _548  and  _549
REMARK  223  A    between atoms: _548  and  _551
REMARK  224  A    between atoms: _551  and  _552
REMARK  225  A    between atoms: _555  and  _557
REMARK  226  A    between atoms: _557  and  _558
REMARK  227  A    between atoms: _557  and  _560
REMARK  228  A    between atoms: _560  and  _561
REMARK  229  A    between atoms: _567  and  _569
REMARK  230  A    between atoms: _569  and  _570
REMARK  231  A    between atoms: _569  and  _572
REMARK  232  A    between atoms: _572  and  _573
REMARK  233  A    between atoms: _575  and  _577
REMARK  234  A    between atoms: _577  and  _578
REMARK  235  A    between atoms: _577  and  _580
REMARK  236  A    between atoms: _580  and  _581
REMARK  237  A    between atoms: _584  and  _586
REMARK  238  A    between atoms: _586  and  _587
REMARK  239  A    between atoms: _586  and  _589
REMARK  240  A    between atoms: _589  and  _590
REMARK  241  A    between atoms: _596  and  _598
REMARK  242  A    between atoms: _598  and  _599
REMARK  243  A    between atoms: _601  and  _603
REMARK  244  A    between atoms: _603  and  _604
REMARK  245  A    between atoms: _603  and  _606
REMARK  246  A    between atoms: _606  and  _607
REMARK                            x       y       z     vdW  Elec       q    Type
REMARK                         _______ _______ _______ _____ _____    ______ ____
ROOT
ATOM      1  O   HOH     1      17.367   1.444  10.221  0.00  0.00    +0.000 OA
ENDROOT
TORSDOF 0
REMARK  Name = ../refined-set-2016/1ppl/1ppl_pocket.pdb
REMARK  246 active torsions:
REMARK  status: ('A' for Active; 'I' for Inactive)
REMARK    1  A    between atoms: _1  and  _3
REMARK    2  A    between atoms: _3  and  _4
REMARK    3  A    between atoms: _3  and  _6
REMARK    4  A    between atoms: _6  and  _7
REMARK    5  A    between atoms: _10  and  _12
REMARK    6  A    between atoms: _12  and  _13
REMARK    7  A    between atoms: _16  and  _18
REMARK    8  A    between atoms: _18  and  _19
REMARK    9  A    between atoms: _18  and  _21
REMARK   10  A    between atoms: _21  and  _22
REMARK   11  A    between atoms: _27  and  _29
REMARK   12  A    between atoms: _29  and  _30
REMARK   13  A    between atoms: _29  and  _32
REMARK   14  A    between atoms: _32  and  _33
REMARK   15  A    between atoms: _36  and  _38
REMARK   16  A    between atoms: _38  and  _39
REMARK   17  A    between atoms: _38  and  _41
REMARK   18  A    between atoms: _41  and  _42
REMARK   19  A    between atoms: _42  and  _43
REMARK   20  A    between atoms: _46  and  _48
REMARK   21  A    between atoms: _48  and  _49
REMARK   22  A    between atoms: _48  and  _51
REMARK   23  A    between atoms: _51  and  _52
REMARK   24  A    between atoms: _52  and  _53
REMARK   25  A    between atoms: _56  and  _58
REMARK   26  A    between atoms: _58  and  _59
REMARK   27  A    between atoms: _58  and  _61
REMARK   28  A    between atoms: _61  and  _62
REMARK   29  A    between atoms: _67  and  _68
REMARK   30  A    between atoms: _70  and  _72
REMARK   31  A    between atoms: _72  and  _73
REMARK   32  A    between atoms: _72  and  _75
REMARK   33  A    between atoms: _75  and  _76
REMARK   34  A    between atoms: _81  and  _83
REMARK   35  A    between atoms: _83  and  _84
REMARK   36  A    between atoms: _83  and  _86
REMARK   37  A    between atoms: _86  and  _87
REMARK   38  A    between atoms: _93  and  _95
REMARK   39  A    between atoms: _95  and  _96
REMARK   40  A    between atoms: _95  and  _98
REMARK   41  A    between atoms: _98  and  _99
REMARK   42  A    between atoms: _102  and  _104
REMARK   43  A    between atoms: _104  and  _105
REMARK   44  A    between atoms: _104  and  _107
REMARK   45  A    between atoms: _107  and  _108
REMARK   46  A    between atoms: _111  and  _113
REMARK   47  A    between atoms: _113  and  _114
REMARK   48  A    between atoms: _116  and  _118
REMARK   49  A    between atoms: _118  and  _119
REMARK   50  A    between atoms: _118  and  _121
REMARK   51  A    between atoms: _121  and  _122
REMARK   52  A    between atoms: _124  and  _126
REMARK   53  A    between atoms: _126  and  _127
REMARK   54  A    between atoms: _130  and  _132
REMARK   55  A    between atoms: _132  and  _133
REMARK   56  A    between atoms: _132  and  _135
REMARK   57  A    between atoms: _135  and  _136
REMARK   58  A    between atoms: _139  and  _141
REMARK   59  A    between atoms: _141  and  _142
REMARK   60  A    between atoms: _141  and  _144
REMARK   61  A    between atoms: _144  and  _145
REMARK   62  A    between atoms: _155  and  _157
REMARK   63  A    between atoms: _157  and  _158
REMARK   64  A    between atoms: _157  and  _160
REMARK   65  A    between atoms: _160  and  _161
REMARK   66  A    between atoms: _164  and  _166
REMARK   67  A    between atoms: _166  and  _167
REMARK   68  A    between atoms: _166  and  _169
REMARK   69  A    between atoms: _169  and  _170
REMARK   70  A    between atoms: _172  and  _174
REMARK   71  A    between atoms: _174  and  _175
REMARK   72  A    between atoms: _174  and  _177
REMARK   73  A    between atoms: _177  and  _178
REMARK   74  A    between atoms: _183  and  _184
REMARK   75  A    between atoms: _186  and  _188
REMARK   76  A    between atoms: _188  and  _189
REMARK   77  A    between atoms: _191  and  _193
REMARK   78  A    between atoms: _193  and  _194
REMARK   79  A    between atoms: _193  and  _196
REMARK   80  A    between atoms: _196  and  _197
REMARK   81  A    between atoms: _200  and  _202
REMARK   82  A    between atoms: _202  and  _203
REMARK   83  A    between atoms: _205  and  _207
REMARK   84  A    between atoms: _207  and  _208
REMARK   85  A    between atoms: _207  and  _210
REMARK   86  A    between atoms: _210  and  _211
REMARK   87  A    between atoms: _213  and  _215
REMARK   88  A    between atoms: _215  and  _216
REMARK   89  A    between atoms: _215  and  _218
REMARK   90  A    between atoms: _218  and  _219
REMARK   91  A    between atoms: _221  and  _223
REMARK   92  A    between atoms: _223  and  _224
REMARK   93  A    between atoms: _223  and  _226
REMARK   94  A    between atoms: _226  and  _227
REMARK   95  A    between atoms: _227  and  _228
REMARK   96  A    between atoms: _233  and  _235
REMARK   97  A    between atoms: _235  and  _236
REMARK   98  A    between atoms: _235  and  _238
REMARK   99  A    between atoms: _238  and  _239
REMARK  100  A    between atoms: _245  and  _247
REMARK  101  A    between atoms: _247  and  _248
REMARK  102  A    between atoms: _247  and  _250
REMARK  103  A    between atoms: _250  and  _251
REMARK  104  A    between atoms: _254  and  _256
REMARK  105  A    between atoms: _256  and  _257
REMARK  106  A    between atoms: _256  and  _259
REMARK  107  A    between atoms: _259  and  _260
REMARK  108  A    between atoms: _265  and  _267
REMARK  109  A    between atoms: _267  and  _268
REMARK  110  A    between atoms: _267  and  _270
REMARK  111  A    between atoms: _270  and  _271
REMARK  112  A    between atoms: _276  and  _278
REMARK  113  A    between atoms: _278  and  _279
REMARK  114  A    between atoms: _281  and  _283
REMARK  115  A    between atoms: _283  and  _284
REMARK  116  A    between atoms: _283  and  _286
REMARK  117  A    between atoms: _286  and  _287
REMARK  118  A    between atoms: _290  and  _292
REMARK  119  A    between atoms: _292  and  _293
REMARK  120  A    between atoms: _292  and  _295
REMARK  121  A    between atoms: _295  and  _296
REMARK  122  A    between atoms: _299  and  _301
REMARK  123  A    between atoms: _301  and  _302
REMARK  124  A    between atoms: _304  and  _306
REMARK  125  A    between atoms: _306  and  _307
REMARK  126  A    between atoms: _306  and  _309
REMARK  127  A    between atoms: _309  and  _310
REMARK  128  A    between atoms: _313  and  _315
REMARK  129  A    between atoms: _315  and  _316
REMARK  130  A    between atoms: _319  and  _321
REMARK  131  A    between atoms: _321  and  _322
REMARK  132  A    between atoms: _321  and  _324
REMARK  133  A    between atoms: _324  and  _325
REMARK  134  A    between atoms: _328  and  _330
REMARK  135  A    between atoms: _330  and  _331
REMARK  136  A    between atoms: _330  and  _333
REMARK  137  A    between atoms: _333  and  _334
REMARK  138  A    between atoms: _337  and  _339
REMARK  139  A    between atoms: _339  and  _340
REMARK  140  A    between atoms: _339  and  _342
REMARK  141  A    between atoms: _342  and  _343
REMARK  142  A    between atoms: _349  and  _351
REMARK  143  A    between atoms: _351  and  _352
REMARK  144  A    between atoms: _351  and  _354
REMARK  145  A    between atoms: _354  and  _355
REMARK  146  A    between atoms: _365  and  _367
REMARK  147  A    between atoms: _367  and  _368
REMARK  148  A    between atoms: _367  and  _370
REMARK  149  A    between atoms: _370  and  _371
REMARK  150  A    between atoms: _374  and  _376
REMARK  151  A    between atoms: _376  and  _377
REMARK  152  A    between atoms: _380  and  _382
REMARK  153  A    between atoms: _382  and  _383
REMARK  154  A    between atoms: _382  and  _385
REMARK  155  A    between atoms: _385  and  _386
REMARK  156  A    between atoms: _389  and  _391
REMARK  157  A    between atoms: _391  and  _392
REMARK  158  A    between atoms: _391  and  _394
REMARK  159  A    between atoms: _394  and  _395
REMARK  160  A    between atoms: _398  and  _400
REMARK  161  A    between atoms: _400  and  _401
REMARK  162  A    between atoms: _403  and  _405
REMARK  163  A    between atoms: _405  and  _406
REMARK  164  A    between atoms: _405  and  _408
REMARK  165  A    between atoms: _408  and  _409
REMARK  166  A    between atoms: _412  and  _414
REMARK  167  A    between atoms: _414  and  _415
REMARK  168  A    between atoms: _414  and  _417
REMARK  169  A    between atoms: _417  and  _418
REMARK  170  A    between atoms: _421  and  _423
REMARK  171  A    between atoms: _423  and  _424
REMARK  172  A    between atoms: _423  and  _426
REMARK  173  A    between atoms: _426  and  _427
REMARK  174  A    between atoms: _430  and  _432
REMARK  175  A    between atoms: _432  and  _433
REMARK  176  A    between atoms: _432  and  _435
REMARK  177  A    between atoms: _435  and  _436
REMARK  178  A    between atoms: _439  and  _441
REMARK  179  A    between atoms: _441  and  _442
REMARK  180  A    between atoms: _441  and  _444
REMARK  181  A    between atoms: _444  and  _445
REMARK  182  A    between atoms: _448  and  _450
REMARK  183  A    between atoms: _450  and  _451
REMARK  184  A    between atoms: _454  and  _456
REMARK  185  A    between atoms: _456  and  _457
REMARK  186  A    between atoms: _459  and  _461
REMARK  187  A    between atoms: _461  and  _462
REMARK  188  A    between atoms: _464  and  _466
REMARK  189  A    between atoms: _466  and  _467
REMARK  190  A    between atoms: _466  and  _469
REMARK  191  A    between atoms: _469  and  _470
REMARK  192  A    between atoms: _475  and  _476
REMARK  193  A    between atoms: _479  and  _480
REMARK  194  A    between atoms: _485  and  _487
REMARK  195  A    between atoms: _487  and  _488
REMARK  196  A    between atoms: _487  and  _490
REMARK  197  A    between atoms: _490  and  _491
REMARK  198  A    between atoms: _493  and  _495
REMARK  199  A    between atoms: _495  and  _496
REMARK  200  A    between atoms: _495  and  _498
REMARK  201  A    between atoms: _498  and  _499
REMARK  202  A    between atoms: _502  and  _504
REMARK  203  A    between atoms: _504  and  _505
REMARK  204  A    between atoms: _507  and  _509
REMARK  205  A    between atoms: _509  and  _510
REMARK  206  A    between atoms: _509  and  _512
REMARK  207  A    between atoms: _512  and  _513
REMARK  208  A    between atoms: _513  and  _514
REMARK  209  A    between atoms: _519  and  _521
REMARK  210  A    between atoms: _521  and  _522
REMARK  211  A    between atoms: _521  and  _524
REMARK  212  A    between atoms: _524  and  _525
REMARK  213  A    between atoms: _527  and  _529
REMARK  214  A    between atoms: _529  and  _530
REMARK  215  A    between atoms: _529  and  _532
REMARK  216  A    between atoms: _532  and  _533
REMARK  217  A    between atoms: _538  and  _540
REMARK  218  A    between atoms: _540  and  _541
REMARK  219  A    between atoms: _540  and  _543
REMARK  220  A    between atoms: _543  and  _544
REMARK  221  A    between atoms: _546  and  _548
REMARK  222  A    between atoms: _548  and  _549
REMARK  223  A    between atoms: _548  and  _551
REMARK  224  A    between atoms: _551  and  _552
REMARK  225  A    between atoms: _555  and  _557
REMARK  226  A    between atoms: _557  and  _558
REMARK  227  A    between atoms: _557  and  _560
REMARK  228  A    between atoms: _560  and  _561
REMARK  229  A    between atoms: _567  and  _569
REMARK  230  A    between atoms: _569  and  _570
REMARK  231  A    between atoms: _569  and  _572
REMARK  232  A    between atoms: _572  and  _573
REMARK  233  A    between atoms: _575  and  _577
REMARK  234  A    between atoms: _577  and  _578
REMARK  235  A    between atoms: _577  and  _580
REMARK  236  A    between atoms: _580  and  _581
REMARK  237  A    between atoms: _584  and  _586
REMARK  238  A    between atoms: _586  and  _587
REMARK  239  A    between atoms: _586  and  _589
REMARK  240  A    between atoms: _589  and  _590
REMARK  241  A    between atoms: _596  and  _598
REMARK  242  A    between atoms: _598  and  _599
REMARK  243  A    between atoms: _601  and  _603
REMARK  244  A    between atoms: _603  and  _604
REMARK  245  A    between atoms: _603  and  _606
REMARK  246  A    between atoms: _606  and  _607
REMARK                            x       y       z     vdW  Elec       q    Type
REMARK                         _______ _______ _______ _____ _____    ______ ____
ROOT
ATOM      1  O   HOH     1      21.931   9.051  15.520  0.00  0.00    +0.000 OA
ENDROOT
TORSDOF 0
REMARK  Name = ../refined-set-2016/1ppl/1ppl_pocket.pdb
REMARK  246 active torsions:
REMARK  status: ('A' for Active; 'I' for Inactive)
REMARK    1  A    between atoms: _1  and  _3
REMARK    2  A    between atoms: _3  and  _4
REMARK    3  A    between atoms: _3  and  _6
REMARK    4  A    between atoms: _6  and  _7
REMARK    5  A    between atoms: _10  and  _12
REMARK    6  A    between atoms: _12  and  _13
REMARK    7  A    between atoms: _16  and  _18
REMARK    8  A    between atoms: _18  and  _19
REMARK    9  A    between atoms: _18  and  _21
REMARK   10  A    between atoms: _21  and  _22
REMARK   11  A    between atoms: _27  and  _29
REMARK   12  A    between atoms: _29  and  _30
REMARK   13  A    between atoms: _29  and  _32
REMARK   14  A    between atoms: _32  and  _33
REMARK   15  A    between atoms: _36  and  _38
REMARK   16  A    between atoms: _38  and  _39
REMARK   17  A    between atoms: _38  and  _41
REMARK   18  A    between atoms: _41  and  _42
REMARK   19  A    between atoms: _42  and  _43
REMARK   20  A    between atoms: _46  and  _48
REMARK   21  A    between atoms: _48  and  _49
REMARK   22  A    between atoms: _48  and  _51
REMARK   23  A    between atoms: _51  and  _52
REMARK   24  A    between atoms: _52  and  _53
REMARK   25  A    between atoms: _56  and  _58
REMARK   26  A    between atoms: _58  and  _59
REMARK   27  A    between atoms: _58  and  _61
REMARK   28  A    between atoms: _61  and  _62
REMARK   29  A    between atoms: _67  and  _68
REMARK   30  A    between atoms: _70  and  _72
REMARK   31  A    between atoms: _72  and  _73
REMARK   32  A    between atoms: _72  and  _75
REMARK   33  A    between atoms: _75  and  _76
REMARK   34  A    between atoms: _81  and  _83
REMARK   35  A    between atoms: _83  and  _84
REMARK   36  A    between atoms: _83  and  _86
REMARK   37  A    between atoms: _86  and  _87
REMARK   38  A    between atoms: _93  and  _95
REMARK   39  A    between atoms: _95  and  _96
REMARK   40  A    between atoms: _95  and  _98
REMARK   41  A    between atoms: _98  and  _99
REMARK   42  A    between atoms: _102  and  _104
REMARK   43  A    between atoms: _104  and  _105
REMARK   44  A    between atoms: _104  and  _107
REMARK   45  A    between atoms: _107  and  _108
REMARK   46  A    between atoms: _111  and  _113
REMARK   47  A    between atoms: _113  and  _114
REMARK   48  A    between atoms: _116  and  _118
REMARK   49  A    between atoms: _118  and  _119
REMARK   50  A    between atoms: _118  and  _121
REMARK   51  A    between atoms: _121  and  _122
REMARK   52  A    between atoms: _124  and  _126
REMARK   53  A    between atoms: _126  and  _127
REMARK   54  A    between atoms: _130  and  _132
REMARK   55  A    between atoms: _132  and  _133
REMARK   56  A    between atoms: _132  and  _135
REMARK   57  A    between atoms: _135  and  _136
REMARK   58  A    between atoms: _139  and  _141
REMARK   59  A    between atoms: _141  and  _142
REMARK   60  A    between atoms: _141  and  _144
REMARK   61  A    between atoms: _144  and  _145
REMARK   62  A    between atoms: _155  and  _157
REMARK   63  A    between atoms: _157  and  _158
REMARK   64  A    between atoms: _157  and  _160
REMARK   65  A    between atoms: _160  and  _161
REMARK   66  A    between atoms: _164  and  _166
REMARK   67  A    between atoms: _166  and  _167
REMARK   68  A    between atoms: _166  and  _169
REMARK   69  A    between atoms: _169  and  _170
REMARK   70  A    between atoms: _172  and  _174
REMARK   71  A    between atoms: _174  and  _175
REMARK   72  A    between atoms: _174  and  _177
REMARK   73  A    between atoms: _177  and  _178
REMARK   74  A    between atoms: _183  and  _184
REMARK   75  A    between atoms: _186  and  _188
REMARK   76  A    between atoms: _188  and  _189
REMARK   77  A    between atoms: _191  and  _193
REMARK   78  A    between atoms: _193  and  _194
REMARK   79  A    between atoms: _193  and  _196
REMARK   80  A    between atoms: _196  and  _197
REMARK   81  A    between atoms: _200  and  _202
REMARK   82  A    between atoms: _202  and  _203
REMARK   83  A    between atoms: _205  and  _207
REMARK   84  A    between atoms: _207  and  _208
REMARK   85  A    between atoms: _207  and  _210
REMARK   86  A    between atoms: _210  and  _211
REMARK   87  A    between atoms: _213  and  _215
REMARK   88  A    between atoms: _215  and  _216
REMARK   89  A    between atoms: _215  and  _218
REMARK   90  A    between atoms: _218  and  _219
REMARK   91  A    between atoms: _221  and  _223
REMARK   92  A    between atoms: _223  and  _224
REMARK   93  A    between atoms: _223  and  _226
REMARK   94  A    between atoms: _226  and  _227
REMARK   95  A    between atoms: _227  and  _228
REMARK   96  A    between atoms: _233  and  _235
REMARK   97  A    between atoms: _235  and  _236
REMARK   98  A    between atoms: _235  and  _238
REMARK   99  A    between atoms: _238  and  _239
REMARK  100  A    between atoms: _245  and  _247
REMARK  101  A    between atoms: _247  and  _248
REMARK  102  A    between atoms: _247  and  _250
REMARK  103  A    between atoms: _250  and  _251
REMARK  104  A    between atoms: _254  and  _256
REMARK  105  A    between atoms: _256  and  _257
REMARK  106  A    between atoms: _256  and  _259
REMARK  107  A    between atoms: _259  and  _260
REMARK  108  A    between atoms: _265  and  _267
REMARK  109  A    between atoms: _267  and  _268
REMARK  110  A    between atoms: _267  and  _270
REMARK  111  A    between atoms: _270  and  _271
REMARK  112  A    between atoms: _276  and  _278
REMARK  113  A    between atoms: _278  and  _279
REMARK  114  A    between atoms: _281  and  _283
REMARK  115  A    between atoms: _283  and  _284
REMARK  116  A    between atoms: _283  and  _286
REMARK  117  A    between atoms: _286  and  _287
REMARK  118  A    between atoms: _290  and  _292
REMARK  119  A    between atoms: _292  and  _293
REMARK  120  A    between atoms: _292  and  _295
REMARK  121  A    between atoms: _295  and  _296
REMARK  122  A    between atoms: _299  and  _301
REMARK  123  A    between atoms: _301  and  _302
REMARK  124  A    between atoms: _304  and  _306
REMARK  125  A    between atoms: _306  and  _307
REMARK  126  A    between atoms: _306  and  _309
REMARK  127  A    between atoms: _309  and  _310
REMARK  128  A    between atoms: _313  and  _315
REMARK  129  A    between atoms: _315  and  _316
REMARK  130  A    between atoms: _319  and  _321
REMARK  131  A    between atoms: _321  and  _322
REMARK  132  A    between atoms: _321  and  _324
REMARK  133  A    between atoms: _324  and  _325
REMARK  134  A    between atoms: _328  and  _330
REMARK  135  A    between atoms: _330  and  _331
REMARK  136  A    between atoms: _330  and  _333
REMARK  137  A    between atoms: _333  and  _334
REMARK  138  A    between atoms: _337  and  _339
REMARK  139  A    between atoms: _339  and  _340
REMARK  140  A    between atoms: _339  and  _342
REMARK  141  A    between atoms: _342  and  _343
REMARK  142  A    between atoms: _349  and  _351
REMARK  143  A    between atoms: _351  and  _352
REMARK  144  A    between atoms: _351  and  _354
REMARK  145  A    between atoms: _354  and  _355
REMARK  146  A    between atoms: _365  and  _367
REMARK  147  A    between atoms: _367  and  _368
REMARK  148  A    between atoms: _367  and  _370
REMARK  149  A    between atoms: _370  and  _371
REMARK  150  A    between atoms: _374  and  _376
REMARK  151  A    between atoms: _376  and  _377
REMARK  152  A    between atoms: _380  and  _382
REMARK  153  A    between atoms: _382  and  _383
REMARK  154  A    between atoms: _382  and  _385
REMARK  155  A    between atoms: _385  and  _386
REMARK  156  A    between atoms: _389  and  _391
REMARK  157  A    between atoms: _391  and  _392
REMARK  158  A    between atoms: _391  and  _394
REMARK  159  A    between atoms: _394  and  _395
REMARK  160  A    between atoms: _398  and  _400
REMARK  161  A    between atoms: _400  and  _401
REMARK  162  A    between atoms: _403  and  _405
REMARK  163  A    between atoms: _405  and  _406
REMARK  164  A    between atoms: _405  and  _408
REMARK  165  A    between atoms: _408  and  _409
REMARK  166  A    between atoms: _412  and  _414
REMARK  167  A    between atoms: _414  and  _415
REMARK  168  A    between atoms: _414  and  _417
REMARK  169  A    between atoms: _417  and  _418
REMARK  170  A    between atoms: _421  and  _423
REMARK  171  A    between atoms: _423  and  _424
REMARK  172  A    between atoms: _423  and  _426
REMARK  173  A    between atoms: _426  and  _427
REMARK  174  A    between atoms: _430  and  _432
REMARK  175  A    between atoms: _432  and  _433
REMARK  176  A    between atoms: _432  and  _435
REMARK  177  A    between atoms: _435  and  _436
REMARK  178  A    between atoms: _439  and  _441
REMARK  179  A    between atoms: _441  and  _442
REMARK  180  A    between atoms: _441  and  _444
REMARK  181  A    between atoms: _444  and  _445
REMARK  182  A    between atoms: _448  and  _450
REMARK  183  A    between atoms: _450  and  _451
REMARK  184  A    between atoms: _454  and  _456
REMARK  185  A    between atoms: _456  and  _457
REMARK  186  A    between atoms: _459  and  _461
REMARK  187  A    between atoms: _461  and  _462
REMARK  188  A    between atoms: _464  and  _466
REMARK  189  A    between atoms: _466  and  _467
REMARK  190  A    between atoms: _466  and  _469
REMARK  191  A    between atoms: _469  and  _470
REMARK  192  A    between atoms: _475  and  _476
REMARK  193  A    between atoms: _479  and  _480
REMARK  194  A    between atoms: _485  and  _487
REMARK  195  A    between atoms: _487  and  _488
REMARK  196  A    between atoms: _487  and  _490
REMARK  197  A    between atoms: _490  and  _491
REMARK  198  A    between atoms: _493  and  _495
REMARK  199  A    between atoms: _495  and  _496
REMARK  200  A    between atoms: _495  and  _498
REMARK  201  A    between atoms: _498  and  _499
REMARK  202  A    between atoms: _502  and  _504
REMARK  203  A    between atoms: _504  and  _505
REMARK  204  A    between atoms: _507  and  _509
REMARK  205  A    between atoms: _509  and  _510
REMARK  206  A    between atoms: _509  and  _512
REMARK  207  A    between atoms: _512  and  _513
REMARK  208  A    between atoms: _513  and  _514
REMARK  209  A    between atoms: _519  and  _521
REMARK  210  A    between atoms: _521  and  _522
REMARK  211  A    between atoms: _521  and  _524
REMARK  212  A    between atoms: _524  and  _525
REMARK  213  A    between atoms: _527  and  _529
REMARK  214  A    between atoms: _529  and  _530
REMARK  215  A    between atoms: _529  and  _532
REMARK  216  A    between atoms: _532  and  _533
REMARK  217  A    between atoms: _538  and  _540
REMARK  218  A    between atoms: _540  and  _541
REMARK  219  A    between atoms: _540  and  _543
REMARK  220  A    between atoms: _543  and  _544
REMARK  221  A    between atoms: _546  and  _548
REMARK  222  A    between atoms: _548  and  _549
REMARK  223  A    between atoms: _548  and  _551
REMARK  224  A    between atoms: _551  and  _552
REMARK  225  A    between atoms: _555  and  _557
REMARK  226  A    between atoms: _557  and  _558
REMARK  227  A    between atoms: _557  and  _560
REMARK  228  A    between atoms: _560  and  _561
REMARK  229  A    between atoms: _567  and  _569
REMARK  230  A    between atoms: _569  and  _570
REMARK  231  A    between atoms: _569  and  _572
REMARK  232  A    between atoms: _572  and  _573
REMARK  233  A    between atoms: _575  and  _577
REMARK  234  A    between atoms: _577  and  _578
REMARK  235  A    between atoms: _577  and  _580
REMARK  236  A    between atoms: _580  and  _581
REMARK  237  A    between atoms: _584  and  _586
REMARK  238  A    between atoms: _586  and  _587
REMARK  239  A    between atoms: _586  and  _589
REMARK  240  A    between atoms: _589  and  _590
REMARK  241  A    between atoms: _596  and  _598
REMARK  242  A    between atoms: _598  and  _599
REMARK  243  A    between atoms: _601  and  _603
REMARK  244  A    between atoms: _603  and  _604
REMARK  245  A    between atoms: _603  and  _606
REMARK  246  A    between atoms: _606  and  _607
REMARK                            x       y       z     vdW  Elec       q    Type
REMARK                         _______ _______ _______ _____ _____    ______ ____
ROOT
ATOM      1  O   HOH     1      30.505  11.488  19.673  0.00  0.00    +0.000 OA
ENDROOT
TORSDOF 0
REMARK  Name = ../refined-set-2016/1ppl/1ppl_pocket.pdb
REMARK  246 active torsions:
REMARK  status: ('A' for Active; 'I' for Inactive)
REMARK    1  A    between atoms: _1  and  _3
REMARK    2  A    between atoms: _3  and  _4
REMARK    3  A    between atoms: _3  and  _6
REMARK    4  A    between atoms: _6  and  _7
REMARK    5  A    between atoms: _10  and  _12
REMARK    6  A    between atoms: _12  and  _13
REMARK    7  A    between atoms: _16  and  _18
REMARK    8  A    between atoms: _18  and  _19
REMARK    9  A    between atoms: _18  and  _21
REMARK   10  A    between atoms: _21  and  _22
REMARK   11  A    between atoms: _27  and  _29
REMARK   12  A    between atoms: _29  and  _30
REMARK   13  A    between atoms: _29  and  _32
REMARK   14  A    between atoms: _32  and  _33
REMARK   15  A    between atoms: _36  and  _38
REMARK   16  A    between atoms: _38  and  _39
REMARK   17  A    between atoms: _38  and  _41
REMARK   18  A    between atoms: _41  and  _42
REMARK   19  A    between atoms: _42  and  _43
REMARK   20  A    between atoms: _46  and  _48
REMARK   21  A    between atoms: _48  and  _49
REMARK   22  A    between atoms: _48  and  _51
REMARK   23  A    between atoms: _51  and  _52
REMARK   24  A    between atoms: _52  and  _53
REMARK   25  A    between atoms: _56  and  _58
REMARK   26  A    between atoms: _58  and  _59
REMARK   27  A    between atoms: _58  and  _61
REMARK   28  A    between atoms: _61  and  _62
REMARK   29  A    between atoms: _67  and  _68
REMARK   30  A    between atoms: _70  and  _72
REMARK   31  A    between atoms: _72  and  _73
REMARK   32  A    between atoms: _72  and  _75
REMARK   33  A    between atoms: _75  and  _76
REMARK   34  A    between atoms: _81  and  _83
REMARK   35  A    between atoms: _83  and  _84
REMARK   36  A    between atoms: _83  and  _86
REMARK   37  A    between atoms: _86  and  _87
REMARK   38  A    between atoms: _93  and  _95
REMARK   39  A    between atoms: _95  and  _96
REMARK   40  A    between atoms: _95  and  _98
REMARK   41  A    between atoms: _98  and  _99
REMARK   42  A    between atoms: _102  and  _104
REMARK   43  A    between atoms: _104  and  _105
REMARK   44  A    between atoms: _104  and  _107
REMARK   45  A    between atoms: _107  and  _108
REMARK   46  A    between atoms: _111  and  _113
REMARK   47  A    between atoms: _113  and  _114
REMARK   48  A    between atoms: _116  and  _118
REMARK   49  A    between atoms: _118  and  _119
REMARK   50  A    between atoms: _118  and  _121
REMARK   51  A    between atoms: _121  and  _122
REMARK   52  A    between atoms: _124  and  _126
REMARK   53  A    between atoms: _126  and  _127
REMARK   54  A    between atoms: _130  and  _132
REMARK   55  A    between atoms: _132  and  _133
REMARK   56  A    between atoms: _132  and  _135
REMARK   57  A    between atoms: _135  and  _136
REMARK   58  A    between atoms: _139  and  _141
REMARK   59  A    between atoms: _141  and  _142
REMARK   60  A    between atoms: _141  and  _144
REMARK   61  A    between atoms: _144  and  _145
REMARK   62  A    between atoms: _155  and  _157
REMARK   63  A    between atoms: _157  and  _158
REMARK   64  A    between atoms: _157  and  _160
REMARK   65  A    between atoms: _160  and  _161
REMARK   66  A    between atoms: _164  and  _166
REMARK   67  A    between atoms: _166  and  _167
REMARK   68  A    between atoms: _166  and  _169
REMARK   69  A    between atoms: _169  and  _170
REMARK   70  A    between atoms: _172  and  _174
REMARK   71  A    between atoms: _174  and  _175
REMARK   72  A    between atoms: _174  and  _177
REMARK   73  A    between atoms: _177  and  _178
REMARK   74  A    between atoms: _183  and  _184
REMARK   75  A    between atoms: _186  and  _188
REMARK   76  A    between atoms: _188  and  _189
REMARK   77  A    between atoms: _191  and  _193
REMARK   78  A    between atoms: _193  and  _194
REMARK   79  A    between atoms: _193  and  _196
REMARK   80  A    between atoms: _196  and  _197
REMARK   81  A    between atoms: _200  and  _202
REMARK   82  A    between atoms: _202  and  _203
REMARK   83  A    between atoms: _205  and  _207
REMARK   84  A    between atoms: _207  and  _208
REMARK   85  A    between atoms: _207  and  _210
REMARK   86  A    between atoms: _210  and  _211
REMARK   87  A    between atoms: _213  and  _215
REMARK   88  A    between atoms: _215  and  _216
REMARK   89  A    between atoms: _215  and  _218
REMARK   90  A    between atoms: _218  and  _219
REMARK   91  A    between atoms: _221  and  _223
REMARK   92  A    between atoms: _223  and  _224
REMARK   93  A    between atoms: _223  and  _226
REMARK   94  A    between atoms: _226  and  _227
REMARK   95  A    between atoms: _227  and  _228
REMARK   96  A    between atoms: _233  and  _235
REMARK   97  A    between atoms: _235  and  _236
REMARK   98  A    between atoms: _235  and  _238
REMARK   99  A    between atoms: _238  and  _239
REMARK  100  A    between atoms: _245  and  _247
REMARK  101  A    between atoms: _247  and  _248
REMARK  102  A    between atoms: _247  and  _250
REMARK  103  A    between atoms: _250  and  _251
REMARK  104  A    between atoms: _254  and  _256
REMARK  105  A    between atoms: _256  and  _257
REMARK  106  A    between atoms: _256  and  _259
REMARK  107  A    between atoms: _259  and  _260
REMARK  108  A    between atoms: _265  and  _267
REMARK  109  A    between atoms: _267  and  _268
REMARK  110  A    between atoms: _267  and  _270
REMARK  111  A    between atoms: _270  and  _271
REMARK  112  A    between atoms: _276  and  _278
REMARK  113  A    between atoms: _278  and  _279
REMARK  114  A    between atoms: _281  and  _283
REMARK  115  A    between atoms: _283  and  _284
REMARK  116  A    between atoms: _283  and  _286
REMARK  117  A    between atoms: _286  and  _287
REMARK  118  A    between atoms: _290  and  _292
REMARK  119  A    between atoms: _292  and  _293
REMARK  120  A    between atoms: _292  and  _295
REMARK  121  A    between atoms: _295  and  _296
REMARK  122  A    between atoms: _299  and  _301
REMARK  123  A    between atoms: _301  and  _302
REMARK  124  A    between atoms: _304  and  _306
REMARK  125  A    between atoms: _306  and  _307
REMARK  126  A    between atoms: _306  and  _309
REMARK  127  A    between atoms: _309  and  _310
REMARK  128  A    between atoms: _313  and  _315
REMARK  129  A    between atoms: _315  and  _316
REMARK  130  A    between atoms: _319  and  _321
REMARK  131  A    between atoms: _321  and  _322
REMARK  132  A    between atoms: _321  and  _324
REMARK  133  A    between atoms: _324  and  _325
REMARK  134  A    between atoms: _328  and  _330
REMARK  135  A    between atoms: _330  and  _331
REMARK  136  A    between atoms: _330  and  _333
REMARK  137  A    between atoms: _333  and  _334
REMARK  138  A    between atoms: _337  and  _339
REMARK  139  A    between atoms: _339  and  _340
REMARK  140  A    between atoms: _339  and  _342
REMARK  141  A    between atoms: _342  and  _343
REMARK  142  A    between atoms: _349  and  _351
REMARK  143  A    between atoms: _351  and  _352
REMARK  144  A    between atoms: _351  and  _354
REMARK  145  A    between atoms: _354  and  _355
REMARK  146  A    between atoms: _365  and  _367
REMARK  147  A    between atoms: _367  and  _368
REMARK  148  A    between atoms: _367  and  _370
REMARK  149  A    between atoms: _370  and  _371
REMARK  150  A    between atoms: _374  and  _376
REMARK  151  A    between atoms: _376  and  _377
REMARK  152  A    between atoms: _380  and  _382
REMARK  153  A    between atoms: _382  and  _383
REMARK  154  A    between atoms: _382  and  _385
REMARK  155  A    between atoms: _385  and  _386
REMARK  156  A    between atoms: _389  and  _391
REMARK  157  A    between atoms: _391  and  _392
REMARK  158  A    between atoms: _391  and  _394
REMARK  159  A    between atoms: _394  and  _395
REMARK  160  A    between atoms: _398  and  _400
REMARK  161  A    between atoms: _400  and  _401
REMARK  162  A    between atoms: _403  and  _405
REMARK  163  A    between atoms: _405  and  _406
REMARK  164  A    between atoms: _405  and  _408
REMARK  165  A    between atoms: _408  and  _409
REMARK  166  A    between atoms: _412  and  _414
REMARK  167  A    between atoms: _414  and  _415
REMARK  168  A    between atoms: _414  and  _417
REMARK  169  A    between atoms: _417  and  _418
REMARK  170  A    between atoms: _421  and  _423
REMARK  171  A    between atoms: _423  and  _424
REMARK  172  A    between atoms: _423  and  _426
REMARK  173  A    between atoms: _426  and  _427
REMARK  174  A    between atoms: _430  and  _432
REMARK  175  A    between atoms: _432  and  _433
REMARK  176  A    between atoms: _432  and  _435
REMARK  177  A    between atoms: _435  and  _436
REMARK  178  A    between atoms: _439  and  _441
REMARK  179  A    between atoms: _441  and  _442
REMARK  180  A    between atoms: _441  and  _444
REMARK  181  A    between atoms: _444  and  _445
REMARK  182  A    between atoms: _448  and  _450
REMARK  183  A    between atoms: _450  and  _451
REMARK  184  A    between atoms: _454  and  _456
REMARK  185  A    between atoms: _456  and  _457
REMARK  186  A    between atoms: _459  and  _461
REMARK  187  A    between atoms: _461  and  _462
REMARK  188  A    between atoms: _464  and  _466
REMARK  189  A    between atoms: _466  and  _467
REMARK  190  A    between atoms: _466  and  _469
REMARK  191  A    between atoms: _469  and  _470
REMARK  192  A    between atoms: _475  and  _476
REMARK  193  A    between atoms: _479  and  _480
REMARK  194  A    between atoms: _485  and  _487
REMARK  195  A    between atoms: _487  and  _488
REMARK  196  A    between atoms: _487  and  _490
REMARK  197  A    between atoms: _490  and  _491
REMARK  198  A    between atoms: _493  and  _495
REMARK  199  A    between atoms: _495  and  _496
REMARK  200  A    between atoms: _495  and  _498
REMARK  201  A    between atoms: _498  and  _499
REMARK  202  A    between atoms: _502  and  _504
REMARK  203  A    between atoms: _504  and  _505
REMARK  204  A    between atoms: _507  and  _509
REMARK  205  A    between atoms: _509  and  _510
REMARK  206  A    between atoms: _509  and  _512
REMARK  207  A    between atoms: _512  and  _513
REMARK  208  A    between atoms: _513  and  _514
REMARK  209  A    between atoms: _519  and  _521
REMARK  210  A    between atoms: _521  and  _522
REMARK  211  A    between atoms: _521  and  _524
REMARK  212  A    between atoms: _524  and  _525
REMARK  213  A    between atoms: _527  and  _529
REMARK  214  A    between atoms: _529  and  _530
REMARK  215  A    between atoms: _529  and  _532
REMARK  216  A    between atoms: _532  and  _533
REMARK  217  A    between atoms: _538  and  _540
REMARK  218  A    between atoms: _540  and  _541
REMARK  219  A    between atoms: _540  and  _543
REMARK  220  A    between atoms: _543  and  _544
REMARK  221  A    between atoms: _546  and  _548
REMARK  222  A    between atoms: _548  and  _549
REMARK  223  A    between atoms: _548  and  _551
REMARK  224  A    between atoms: _551  and  _552
REMARK  225  A    between atoms: _555  and  _557
REMARK  226  A    between atoms: _557  and  _558
REMARK  227  A    between atoms: _557  and  _560
REMARK  228  A    between atoms: _560  and  _561
REMARK  229  A    between atoms: _567  and  _569
REMARK  230  A    between atoms: _569  and  _570
REMARK  231  A    between atoms: _569  and  _572
REMARK  232  A    between atoms: _572  and  _573
REMARK  233  A    between atoms: _575  and  _577
REMARK  234  A    between atoms: _577  and  _578
REMARK  235  A    between atoms: _577  and  _580
REMARK  236  A    between atoms: _580  and  _581
REMARK  237  A    between atoms: _584  and  _586
REMARK  238  A    between atoms: _586  and  _587
REMARK  239  A    between atoms: _586  and  _589
REMARK  240  A    between atoms: _589  and  _590
REMARK  241  A    between atoms: _596  and  _598
REMARK  242  A    between atoms: _598  and  _599
REMARK  243  A    between atoms: _601  and  _603
REMARK  244  A    between atoms: _603  and  _604
REMARK  245  A    between atoms: _603  and  _606
REMARK  246  A    between atoms: _606  and  _607
REMARK                            x       y       z     vdW  Elec       q    Type
REMARK                         _______ _______ _______ _____ _____    ______ ____
ROOT
ATOM      1  O   HOH     1      16.746   8.696  33.449  0.00  0.00    +0.000 OA
ENDROOT
TORSDOF 0
REMARK  Name = ../refined-set-2016/1ppl/1ppl_pocket.pdb
REMARK  246 active torsions:
REMARK  status: ('A' for Active; 'I' for Inactive)
REMARK    1  A    between atoms: _1  and  _3
REMARK    2  A    between atoms: _3  and  _4
REMARK    3  A    between atoms: _3  and  _6
REMARK    4  A    between atoms: _6  and  _7
REMARK    5  A    between atoms: _10  and  _12
REMARK    6  A    between atoms: _12  and  _13
REMARK    7  A    between atoms: _16  and  _18
REMARK    8  A    between atoms: _18  and  _19
REMARK    9  A    between atoms: _18  and  _21
REMARK   10  A    between atoms: _21  and  _22
REMARK   11  A    between atoms: _27  and  _29
REMARK   12  A    between atoms: _29  and  _30
REMARK   13  A    between atoms: _29  and  _32
REMARK   14  A    between atoms: _32  and  _33
REMARK   15  A    between atoms: _36  and  _38
REMARK   16  A    between atoms: _38  and  _39
REMARK   17  A    between atoms: _38  and  _41
REMARK   18  A    between atoms: _41  and  _42
REMARK   19  A    between atoms: _42  and  _43
REMARK   20  A    between atoms: _46  and  _48
REMARK   21  A    between atoms: _48  and  _49
REMARK   22  A    between atoms: _48  and  _51
REMARK   23  A    between atoms: _51  and  _52
REMARK   24  A    between atoms: _52  and  _53
REMARK   25  A    between atoms: _56  and  _58
REMARK   26  A    between atoms: _58  and  _59
REMARK   27  A    between atoms: _58  and  _61
REMARK   28  A    between atoms: _61  and  _62
REMARK   29  A    between atoms: _67  and  _68
REMARK   30  A    between atoms: _70  and  _72
REMARK   31  A    between atoms: _72  and  _73
REMARK   32  A    between atoms: _72  and  _75
REMARK   33  A    between atoms: _75  and  _76
REMARK   34  A    between atoms: _81  and  _83
REMARK   35  A    between atoms: _83  and  _84
REMARK   36  A    between atoms: _83  and  _86
REMARK   37  A    between atoms: _86  and  _87
REMARK   38  A    between atoms: _93  and  _95
REMARK   39  A    between atoms: _95  and  _96
REMARK   40  A    between atoms: _95  and  _98
REMARK   41  A    between atoms: _98  and  _99
REMARK   42  A    between atoms: _102  and  _104
REMARK   43  A    between atoms: _104  and  _105
REMARK   44  A    between atoms: _104  and  _107
REMARK   45  A    between atoms: _107  and  _108
REMARK   46  A    between atoms: _111  and  _113
REMARK   47  A    between atoms: _113  and  _114
REMARK   48  A    between atoms: _116  and  _118
REMARK   49  A    between atoms: _118  and  _119
REMARK   50  A    between atoms: _118  and  _121
REMARK   51  A    between atoms: _121  and  _122
REMARK   52  A    between atoms: _124  and  _126
REMARK   53  A    between atoms: _126  and  _127
REMARK   54  A    between atoms: _130  and  _132
REMARK   55  A    between atoms: _132  and  _133
REMARK   56  A    between atoms: _132  and  _135
REMARK   57  A    between atoms: _135  and  _136
REMARK   58  A    between atoms: _139  and  _141
REMARK   59  A    between atoms: _141  and  _142
REMARK   60  A    between atoms: _141  and  _144
REMARK   61  A    between atoms: _144  and  _145
REMARK   62  A    between atoms: _155  and  _157
REMARK   63  A    between atoms: _157  and  _158
REMARK   64  A    between atoms: _157  and  _160
REMARK   65  A    between atoms: _160  and  _161
REMARK   66  A    between atoms: _164  and  _166
REMARK   67  A    between atoms: _166  and  _167
REMARK   68  A    between atoms: _166  and  _169
REMARK   69  A    between atoms: _169  and  _170
REMARK   70  A    between atoms: _172  and  _174
REMARK   71  A    between atoms: _174  and  _175
REMARK   72  A    between atoms: _174  and  _177
REMARK   73  A    between atoms: _177  and  _178
REMARK   74  A    between atoms: _183  and  _184
REMARK   75  A    between atoms: _186  and  _188
REMARK   76  A    between atoms: _188  and  _189
REMARK   77  A    between atoms: _191  and  _193
REMARK   78  A    between atoms: _193  and  _194
REMARK   79  A    between atoms: _193  and  _196
REMARK   80  A    between atoms: _196  and  _197
REMARK   81  A    between atoms: _200  and  _202
REMARK   82  A    between atoms: _202  and  _203
REMARK   83  A    between atoms: _205  and  _207
REMARK   84  A    between atoms: _207  and  _208
REMARK   85  A    between atoms: _207  and  _210
REMARK   86  A    between atoms: _210  and  _211
REMARK   87  A    between atoms: _213  and  _215
REMARK   88  A    between atoms: _215  and  _216
REMARK   89  A    between atoms: _215  and  _218
REMARK   90  A    between atoms: _218  and  _219
REMARK   91  A    between atoms: _221  and  _223
REMARK   92  A    between atoms: _223  and  _224
REMARK   93  A    between atoms: _223  and  _226
REMARK   94  A    between atoms: _226  and  _227
REMARK   95  A    between atoms: _227  and  _228
REMARK   96  A    between atoms: _233  and  _235
REMARK   97  A    between atoms: _235  and  _236
REMARK   98  A    between atoms: _235  and  _238
REMARK   99  A    between atoms: _238  and  _239
REMARK  100  A    between atoms: _245  and  _247
REMARK  101  A    between atoms: _247  and  _248
REMARK  102  A    between atoms: _247  and  _250
REMARK  103  A    between atoms: _250  and  _251
REMARK  104  A    between atoms: _254  and  _256
REMARK  105  A    between atoms: _256  and  _257
REMARK  106  A    between atoms: _256  and  _259
REMARK  107  A    between atoms: _259  and  _260
REMARK  108  A    between atoms: _265  and  _267
REMARK  109  A    between atoms: _267  and  _268
REMARK  110  A    between atoms: _267  and  _270
REMARK  111  A    between atoms: _270  and  _271
REMARK  112  A    between atoms: _276  and  _278
REMARK  113  A    between atoms: _278  and  _279
REMARK  114  A    between atoms: _281  and  _283
REMARK  115  A    between atoms: _283  and  _284
REMARK  116  A    between atoms: _283  and  _286
REMARK  117  A    between atoms: _286  and  _287
REMARK  118  A    between atoms: _290  and  _292
REMARK  119  A    between atoms: _292  and  _293
REMARK  120  A    between atoms: _292  and  _295
REMARK  121  A    between atoms: _295  and  _296
REMARK  122  A    between atoms: _299  and  _301
REMARK  123  A    between atoms: _301  and  _302
REMARK  124  A    between atoms: _304  and  _306
REMARK  125  A    between atoms: _306  and  _307
REMARK  126  A    between atoms: _306  and  _309
REMARK  127  A    between atoms: _309  and  _310
REMARK  128  A    between atoms: _313  and  _315
REMARK  129  A    between atoms: _315  and  _316
REMARK  130  A    between atoms: _319  and  _321
REMARK  131  A    between atoms: _321  and  _322
REMARK  132  A    between atoms: _321  and  _324
REMARK  133  A    between atoms: _324  and  _325
REMARK  134  A    between atoms: _328  and  _330
REMARK  135  A    between atoms: _330  and  _331
REMARK  136  A    between atoms: _330  and  _333
REMARK  137  A    between atoms: _333  and  _334
REMARK  138  A    between atoms: _337  and  _339
REMARK  139  A    between atoms: _339  and  _340
REMARK  140  A    between atoms: _339  and  _342
REMARK  141  A    between atoms: _342  and  _343
REMARK  142  A    between atoms: _349  and  _351
REMARK  143  A    between atoms: _351  and  _352
REMARK  144  A    between atoms: _351  and  _354
REMARK  145  A    between atoms: _354  and  _355
REMARK  146  A    between atoms: _365  and  _367
REMARK  147  A    between atoms: _367  and  _368
REMARK  148  A    between atoms: _367  and  _370
REMARK  149  A    between atoms: _370  and  _371
REMARK  150  A    between atoms: _374  and  _376
REMARK  151  A    between atoms: _376  and  _377
REMARK  152  A    between atoms: _380  and  _382
REMARK  153  A    between atoms: _382  and  _383
REMARK  154  A    between atoms: _382  and  _385
REMARK  155  A    between atoms: _385  and  _386
REMARK  156  A    between atoms: _389  and  _391
REMARK  157  A    between atoms: _391  and  _392
REMARK  158  A    between atoms: _391  and  _394
REMARK  159  A    between atoms: _394  and  _395
REMARK  160  A    between atoms: _398  and  _400
REMARK  161  A    between atoms: _400  and  _401
REMARK  162  A    between atoms: _403  and  _405
REMARK  163  A    between atoms: _405  and  _406
REMARK  164  A    between atoms: _405  and  _408
REMARK  165  A    between atoms: _408  and  _409
REMARK  166  A    between atoms: _412  and  _414
REMARK  167  A    between atoms: _414  and  _415
REMARK  168  A    between atoms: _414  and  _417
REMARK  169  A    between atoms: _417  and  _418
REMARK  170  A    between atoms: _421  and  _423
REMARK  171  A    between atoms: _423  and  _424
REMARK  172  A    between atoms: _423  and  _426
REMARK  173  A    between atoms: _426  and  _427
REMARK  174  A    between atoms: _430  and  _432
REMARK  175  A    between atoms: _432  and  _433
REMARK  176  A    between atoms: _432  and  _435
REMARK  177  A    between atoms: _435  and  _436
REMARK  178  A    between atoms: _439  and  _441
REMARK  179  A    between atoms: _441  and  _442
REMARK  180  A    between atoms: _441  and  _444
REMARK  181  A    between atoms: _444  and  _445
REMARK  182  A    between atoms: _448  and  _450
REMARK  183  A    between atoms: _450  and  _451
REMARK  184  A    between atoms: _454  and  _456
REMARK  185  A    between atoms: _456  and  _457
REMARK  186  A    between atoms: _459  and  _461
REMARK  187  A    between atoms: _461  and  _462
REMARK  188  A    between atoms: _464  and  _466
REMARK  189  A    between atoms: _466  and  _467
REMARK  190  A    between atoms: _466  and  _469
REMARK  191  A    between atoms: _469  and  _470
REMARK  192  A    between atoms: _475  and  _476
REMARK  193  A    between atoms: _479  and  _480
REMARK  194  A    between atoms: _485  and  _487
REMARK  195  A    between atoms: _487  and  _488
REMARK  196  A    between atoms: _487  and  _490
REMARK  197  A    between atoms: _490  and  _491
REMARK  198  A    between atoms: _493  and  _495
REMARK  199  A    between atoms: _495  and  _496
REMARK  200  A    between atoms: _495  and  _498
REMARK  201  A    between atoms: _498  and  _499
REMARK  202  A    between atoms: _502  and  _504
REMARK  203  A    between atoms: _504  and  _505
REMARK  204  A    between atoms: _507  and  _509
REMARK  205  A    between atoms: _509  and  _510
REMARK  206  A    between atoms: _509  and  _512
REMARK  207  A    between atoms: _512  and  _513
REMARK  208  A    between atoms: _513  and  _514
REMARK  209  A    between atoms: _519  and  _521
REMARK  210  A    between atoms: _521  and  _522
REMARK  211  A    between atoms: _521  and  _524
REMARK  212  A    between atoms: _524  and  _525
REMARK  213  A    between atoms: _527  and  _529
REMARK  214  A    between atoms: _529  and  _530
REMARK  215  A    between atoms: _529  and  _532
REMARK  216  A    between atoms: _532  and  _533
REMARK  217  A    between atoms: _538  and  _540
REMARK  218  A    between atoms: _540  and  _541
REMARK  219  A    between atoms: _540  and  _543
REMARK  220  A    between atoms: _543  and  _544
REMARK  221  A    between atoms: _546  and  _548
REMARK  222  A    between atoms: _548  and  _549
REMARK  223  A    between atoms: _548  and  _551
REMARK  224  A    between atoms: _551  and  _552
REMARK  225  A    between atoms: _555  and  _557
REMARK  226  A    between atoms: _557  and  _558
REMARK  227  A    between atoms: _557  and  _560
REMARK  228  A    between atoms: _560  and  _561
REMARK  229  A    between atoms: _567  and  _569
REMARK  230  A    between atoms: _569  and  _570
REMARK  231  A    between atoms: _569  and  _572
REMARK  232  A    between atoms: _572  and  _573
REMARK  233  A    between atoms: _575  and  _577
REMARK  234  A    between atoms: _577  and  _578
REMARK  235  A    between atoms: _577  and  _580
REMARK  236  A    between atoms: _580  and  _581
REMARK  237  A    between atoms: _584  and  _586
REMARK  238  A    between atoms: _586  and  _587
REMARK  239  A    between atoms: _586  and  _589
REMARK  240  A    between atoms: _589  and  _590
REMARK  241  A    between atoms: _596  and  _598
REMARK  242  A    between atoms: _598  and  _599
REMARK  243  A    between atoms: _601  and  _603
REMARK  244  A    between atoms: _603  and  _604
REMARK  245  A    between atoms: _603  and  _606
REMARK  246  A    between atoms: _606  and  _607
REMARK                            x       y       z     vdW  Elec       q    Type
REMARK                         _______ _______ _______ _____ _____    ______ ____
ROOT
ATOM      1  O   HOH     1      13.713   1.794  13.905  0.00  0.00    +0.000 OA
ENDROOT
TORSDOF 0
REMARK  Name = ../refined-set-2016/1ppl/1ppl_pocket.pdb
REMARK  246 active torsions:
REMARK  status: ('A' for Active; 'I' for Inactive)
REMARK    1  A    between atoms: _1  and  _3
REMARK    2  A    between atoms: _3  and  _4
REMARK    3  A    between atoms: _3  and  _6
REMARK    4  A    between atoms: _6  and  _7
REMARK    5  A    between atoms: _10  and  _12
REMARK    6  A    between atoms: _12  and  _13
REMARK    7  A    between atoms: _16  and  _18
REMARK    8  A    between atoms: _18  and  _19
REMARK    9  A    between atoms: _18  and  _21
REMARK   10  A    between atoms: _21  and  _22
REMARK   11  A    between atoms: _27  and  _29
REMARK   12  A    between atoms: _29  and  _30
REMARK   13  A    between atoms: _29  and  _32
REMARK   14  A    between atoms: _32  and  _33
REMARK   15  A    between atoms: _36  and  _38
REMARK   16  A    between atoms: _38  and  _39
REMARK   17  A    between atoms: _38  and  _41
REMARK   18  A    between atoms: _41  and  _42
REMARK   19  A    between atoms: _42  and  _43
REMARK   20  A    between atoms: _46  and  _48
REMARK   21  A    between atoms: _48  and  _49
REMARK   22  A    between atoms: _48  and  _51
REMARK   23  A    between atoms: _51  and  _52
REMARK   24  A    between atoms: _52  and  _53
REMARK   25  A    between atoms: _56  and  _58
REMARK   26  A    between atoms: _58  and  _59
REMARK   27  A    between atoms: _58  and  _61
REMARK   28  A    between atoms: _61  and  _62
REMARK   29  A    between atoms: _67  and  _68
REMARK   30  A    between atoms: _70  and  _72
REMARK   31  A    between atoms: _72  and  _73
REMARK   32  A    between atoms: _72  and  _75
REMARK   33  A    between atoms: _75  and  _76
REMARK   34  A    between atoms: _81  and  _83
REMARK   35  A    between atoms: _83  and  _84
REMARK   36  A    between atoms: _83  and  _86
REMARK   37  A    between atoms: _86  and  _87
REMARK   38  A    between atoms: _93  and  _95
REMARK   39  A    between atoms: _95  and  _96
REMARK   40  A    between atoms: _95  and  _98
REMARK   41  A    between atoms: _98  and  _99
REMARK   42  A    between atoms: _102  and  _104
REMARK   43  A    between atoms: _104  and  _105
REMARK   44  A    between atoms: _104  and  _107
REMARK   45  A    between atoms: _107  and  _108
REMARK   46  A    between atoms: _111  and  _113
REMARK   47  A    between atoms: _113  and  _114
REMARK   48  A    between atoms: _116  and  _118
REMARK   49  A    between atoms: _118  and  _119
REMARK   50  A    between atoms: _118  and  _121
REMARK   51  A    between atoms: _121  and  _122
REMARK   52  A    between atoms: _124  and  _126
REMARK   53  A    between atoms: _126  and  _127
REMARK   54  A    between atoms: _130  and  _132
REMARK   55  A    between atoms: _132  and  _133
REMARK   56  A    between atoms: _132  and  _135
REMARK   57  A    between atoms: _135  and  _136
REMARK   58  A    between atoms: _139  and  _141
REMARK   59  A    between atoms: _141  and  _142
REMARK   60  A    between atoms: _141  and  _144
REMARK   61  A    between atoms: _144  and  _145
REMARK   62  A    between atoms: _155  and  _157
REMARK   63  A    between atoms: _157  and  _158
REMARK   64  A    between atoms: _157  and  _160
REMARK   65  A    between atoms: _160  and  _161
REMARK   66  A    between atoms: _164  and  _166
REMARK   67  A    between atoms: _166  and  _167
REMARK   68  A    between atoms: _166  and  _169
REMARK   69  A    between atoms: _169  and  _170
REMARK   70  A    between atoms: _172  and  _174
REMARK   71  A    between atoms: _174  and  _175
REMARK   72  A    between atoms: _174  and  _177
REMARK   73  A    between atoms: _177  and  _178
REMARK   74  A    between atoms: _183  and  _184
REMARK   75  A    between atoms: _186  and  _188
REMARK   76  A    between atoms: _188  and  _189
REMARK   77  A    between atoms: _191  and  _193
REMARK   78  A    between atoms: _193  and  _194
REMARK   79  A    between atoms: _193  and  _196
REMARK   80  A    between atoms: _196  and  _197
REMARK   81  A    between atoms: _200  and  _202
REMARK   82  A    between atoms: _202  and  _203
REMARK   83  A    between atoms: _205  and  _207
REMARK   84  A    between atoms: _207  and  _208
REMARK   85  A    between atoms: _207  and  _210
REMARK   86  A    between atoms: _210  and  _211
REMARK   87  A    between atoms: _213  and  _215
REMARK   88  A    between atoms: _215  and  _216
REMARK   89  A    between atoms: _215  and  _218
REMARK   90  A    between atoms: _218  and  _219
REMARK   91  A    between atoms: _221  and  _223
REMARK   92  A    between atoms: _223  and  _224
REMARK   93  A    between atoms: _223  and  _226
REMARK   94  A    between atoms: _226  and  _227
REMARK   95  A    between atoms: _227  and  _228
REMARK   96  A    between atoms: _233  and  _235
REMARK   97  A    between atoms: _235  and  _236
REMARK   98  A    between atoms: _235  and  _238
REMARK   99  A    between atoms: _238  and  _239
REMARK  100  A    between atoms: _245  and  _247
REMARK  101  A    between atoms: _247  and  _248
REMARK  102  A    between atoms: _247  and  _250
REMARK  103  A    between atoms: _250  and  _251
REMARK  104  A    between atoms: _254  and  _256
REMARK  105  A    between atoms: _256  and  _257
REMARK  106  A    between atoms: _256  and  _259
REMARK  107  A    between atoms: _259  and  _260
REMARK  108  A    between atoms: _265  and  _267
REMARK  109  A    between atoms: _267  and  _268
REMARK  110  A    between atoms: _267  and  _270
REMARK  111  A    between atoms: _270  and  _271
REMARK  112  A    between atoms: _276  and  _278
REMARK  113  A    between atoms: _278  and  _279
REMARK  114  A    between atoms: _281  and  _283
REMARK  115  A    between atoms: _283  and  _284
REMARK  116  A    between atoms: _283  and  _286
REMARK  117  A    between atoms: _286  and  _287
REMARK  118  A    between atoms: _290  and  _292
REMARK  119  A    between atoms: _292  and  _293
REMARK  120  A    between atoms: _292  and  _295
REMARK  121  A    between atoms: _295  and  _296
REMARK  122  A    between atoms: _299  and  _301
REMARK  123  A    between atoms: _301  and  _302
REMARK  124  A    between atoms: _304  and  _306
REMARK  125  A    between atoms: _306  and  _307
REMARK  126  A    between atoms: _306  and  _309
REMARK  127  A    between atoms: _309  and  _310
REMARK  128  A    between atoms: _313  and  _315
REMARK  129  A    between atoms: _315  and  _316
REMARK  130  A    between atoms: _319  and  _321
REMARK  131  A    between atoms: _321  and  _322
REMARK  132  A    between atoms: _321  and  _324
REMARK  133  A    between atoms: _324  and  _325
REMARK  134  A    between atoms: _328  and  _330
REMARK  135  A    between atoms: _330  and  _331
REMARK  136  A    between atoms: _330  and  _333
REMARK  137  A    between atoms: _333  and  _334
REMARK  138  A    between atoms: _337  and  _339
REMARK  139  A    between atoms: _339  and  _340
REMARK  140  A    between atoms: _339  and  _342
REMARK  141  A    between atoms: _342  and  _343
REMARK  142  A    between atoms: _349  and  _351
REMARK  143  A    between atoms: _351  and  _352
REMARK  144  A    between atoms: _351  and  _354
REMARK  145  A    between atoms: _354  and  _355
REMARK  146  A    between atoms: _365  and  _367
REMARK  147  A    between atoms: _367  and  _368
REMARK  148  A    between atoms: _367  and  _370
REMARK  149  A    between atoms: _370  and  _371
REMARK  150  A    between atoms: _374  and  _376
REMARK  151  A    between atoms: _376  and  _377
REMARK  152  A    between atoms: _380  and  _382
REMARK  153  A    between atoms: _382  and  _383
REMARK  154  A    between atoms: _382  and  _385
REMARK  155  A    between atoms: _385  and  _386
REMARK  156  A    between atoms: _389  and  _391
REMARK  157  A    between atoms: _391  and  _392
REMARK  158  A    between atoms: _391  and  _394
REMARK  159  A    between atoms: _394  and  _395
REMARK  160  A    between atoms: _398  and  _400
REMARK  161  A    between atoms: _400  and  _401
REMARK  162  A    between atoms: _403  and  _405
REMARK  163  A    between atoms: _405  and  _406
REMARK  164  A    between atoms: _405  and  _408
REMARK  165  A    between atoms: _408  and  _409
REMARK  166  A    between atoms: _412  and  _414
REMARK  167  A    between atoms: _414  and  _415
REMARK  168  A    between atoms: _414  and  _417
REMARK  169  A    between atoms: _417  and  _418
REMARK  170  A    between atoms: _421  and  _423
REMARK  171  A    between atoms: _423  and  _424
REMARK  172  A    between atoms: _423  and  _426
REMARK  173  A    between atoms: _426  and  _427
REMARK  174  A    between atoms: _430  and  _432
REMARK  175  A    between atoms: _432  and  _433
REMARK  176  A    between atoms: _432  and  _435
REMARK  177  A    between atoms: _435  and  _436
REMARK  178  A    between atoms: _439  and  _441
REMARK  179  A    between atoms: _441  and  _442
REMARK  180  A    between atoms: _441  and  _444
REMARK  181  A    between atoms: _444  and  _445
REMARK  182  A    between atoms: _448  and  _450
REMARK  183  A    between atoms: _450  and  _451
REMARK  184  A    between atoms: _454  and  _456
REMARK  185  A    between atoms: _456  and  _457
REMARK  186  A    between atoms: _459  and  _461
REMARK  187  A    between atoms: _461  and  _462
REMARK  188  A    between atoms: _464  and  _466
REMARK  189  A    between atoms: _466  and  _467
REMARK  190  A    between atoms: _466  and  _469
REMARK  191  A    between atoms: _469  and  _470
REMARK  192  A    between atoms: _475  and  _476
REMARK  193  A    between atoms: _479  and  _480
REMARK  194  A    between atoms: _485  and  _487
REMARK  195  A    between atoms: _487  and  _488
REMARK  196  A    between atoms: _487  and  _490
REMARK  197  A    between atoms: _490  and  _491
REMARK  198  A    between atoms: _493  and  _495
REMARK  199  A    between atoms: _495  and  _496
REMARK  200  A    between atoms: _495  and  _498
REMARK  201  A    between atoms: _498  and  _499
REMARK  202  A    between atoms: _502  and  _504
REMARK  203  A    between atoms: _504  and  _505
REMARK  204  A    between atoms: _507  and  _509
REMARK  205  A    between atoms: _509  and  _510
REMARK  206  A    between atoms: _509  and  _512
REMARK  207  A    between atoms: _512  and  _513
REMARK  208  A    between atoms: _513  and  _514
REMARK  209  A    between atoms: _519  and  _521
REMARK  210  A    between atoms: _521  and  _522
REMARK  211  A    between atoms: _521  and  _524
REMARK  212  A    between atoms: _524  and  _525
REMARK  213  A    between atoms: _527  and  _529
REMARK  214  A    between atoms: _529  and  _530
REMARK  215  A    between atoms: _529  and  _532
REMARK  216  A    between atoms: _532  and  _533
REMARK  217  A    between atoms: _538  and  _540
REMARK  218  A    between atoms: _540  and  _541
REMARK  219  A    between atoms: _540  and  _543
REMARK  220  A    between atoms: _543  and  _544
REMARK  221  A    between atoms: _546  and  _548
REMARK  222  A    between atoms: _548  and  _549
REMARK  223  A    between atoms: _548  and  _551
REMARK  224  A    between atoms: _551  and  _552
REMARK  225  A    between atoms: _555  and  _557
REMARK  226  A    between atoms: _557  and  _558
REMARK  227  A    between atoms: _557  and  _560
REMARK  228  A    between atoms: _560  and  _561
REMARK  229  A    between atoms: _567  and  _569
REMARK  230  A    between atoms: _569  and  _570
REMARK  231  A    between atoms: _569  and  _572
REMARK  232  A    between atoms: _572  and  _573
REMARK  233  A    between atoms: _575  and  _577
REMARK  234  A    between atoms: _577  and  _578
REMARK  235  A    between atoms: _577  and  _580
REMARK  236  A    between atoms: _580  and  _581
REMARK  237  A    between atoms: _584  and  _586
REMARK  238  A    between atoms: _586  and  _587
REMARK  239  A    between atoms: _586  and  _589
REMARK  240  A    between atoms: _589  and  _590
REMARK  241  A    between atoms: _596  and  _598
REMARK  242  A    between atoms: _598  and  _599
REMARK  243  A    between atoms: _601  and  _603
REMARK  244  A    between atoms: _603  and  _604
REMARK  245  A    between atoms: _603  and  _606
REMARK  246  A    between atoms: _606  and  _607
REMARK                            x       y       z     vdW  Elec       q    Type
REMARK                         _______ _______ _______ _____ _____    ______ ____
ROOT
ATOM      1  O   HOH     1      22.247  -1.887  17.281  0.00  0.00    +0.000 OA
ENDROOT
TORSDOF 0
REMARK  Name = ../refined-set-2016/1ppl/1ppl_pocket.pdb
REMARK  246 active torsions:
REMARK  status: ('A' for Active; 'I' for Inactive)
REMARK    1  A    between atoms: _1  and  _3
REMARK    2  A    between atoms: _3  and  _4
REMARK    3  A    between atoms: _3  and  _6
REMARK    4  A    between atoms: _6  and  _7
REMARK    5  A    between atoms: _10  and  _12
REMARK    6  A    between atoms: _12  and  _13
REMARK    7  A    between atoms: _16  and  _18
REMARK    8  A    between atoms: _18  and  _19
REMARK    9  A    between atoms: _18  and  _21
REMARK   10  A    between atoms: _21  and  _22
REMARK   11  A    between atoms: _27  and  _29
REMARK   12  A    between atoms: _29  and  _30
REMARK   13  A    between atoms: _29  and  _32
REMARK   14  A    between atoms: _32  and  _33
REMARK   15  A    between atoms: _36  and  _38
REMARK   16  A    between atoms: _38  and  _39
REMARK   17  A    between atoms: _38  and  _41
REMARK   18  A    between atoms: _41  and  _42
REMARK   19  A    between atoms: _42  and  _43
REMARK   20  A    between atoms: _46  and  _48
REMARK   21  A    between atoms: _48  and  _49
REMARK   22  A    between atoms: _48  and  _51
REMARK   23  A    between atoms: _51  and  _52
REMARK   24  A    between atoms: _52  and  _53
REMARK   25  A    between atoms: _56  and  _58
REMARK   26  A    between atoms: _58  and  _59
REMARK   27  A    between atoms: _58  and  _61
REMARK   28  A    between atoms: _61  and  _62
REMARK   29  A    between atoms: _67  and  _68
REMARK   30  A    between atoms: _70  and  _72
REMARK   31  A    between atoms: _72  and  _73
REMARK   32  A    between atoms: _72  and  _75
REMARK   33  A    between atoms: _75  and  _76
REMARK   34  A    between atoms: _81  and  _83
REMARK   35  A    between atoms: _83  and  _84
REMARK   36  A    between atoms: _83  and  _86
REMARK   37  A    between atoms: _86  and  _87
REMARK   38  A    between atoms: _93  and  _95
REMARK   39  A    between atoms: _95  and  _96
REMARK   40  A    between atoms: _95  and  _98
REMARK   41  A    between atoms: _98  and  _99
REMARK   42  A    between atoms: _102  and  _104
REMARK   43  A    between atoms: _104  and  _105
REMARK   44  A    between atoms: _104  and  _107
REMARK   45  A    between atoms: _107  and  _108
REMARK   46  A    between atoms: _111  and  _113
REMARK   47  A    between atoms: _113  and  _114
REMARK   48  A    between atoms: _116  and  _118
REMARK   49  A    between atoms: _118  and  _119
REMARK   50  A    between atoms: _118  and  _121
REMARK   51  A    between atoms: _121  and  _122
REMARK   52  A    between atoms: _124  and  _126
REMARK   53  A    between atoms: _126  and  _127
REMARK   54  A    between atoms: _130  and  _132
REMARK   55  A    between atoms: _132  and  _133
REMARK   56  A    between atoms: _132  and  _135
REMARK   57  A    between atoms: _135  and  _136
REMARK   58  A    between atoms: _139  and  _141
REMARK   59  A    between atoms: _141  and  _142
REMARK   60  A    between atoms: _141  and  _144
REMARK   61  A    between atoms: _144  and  _145
REMARK   62  A    between atoms: _155  and  _157
REMARK   63  A    between atoms: _157  and  _158
REMARK   64  A    between atoms: _157  and  _160
REMARK   65  A    between atoms: _160  and  _161
REMARK   66  A    between atoms: _164  and  _166
REMARK   67  A    between atoms: _166  and  _167
REMARK   68  A    between atoms: _166  and  _169
REMARK   69  A    between atoms: _169  and  _170
REMARK   70  A    between atoms: _172  and  _174
REMARK   71  A    between atoms: _174  and  _175
REMARK   72  A    between atoms: _174  and  _177
REMARK   73  A    between atoms: _177  and  _178
REMARK   74  A    between atoms: _183  and  _184
REMARK   75  A    between atoms: _186  and  _188
REMARK   76  A    between atoms: _188  and  _189
REMARK   77  A    between atoms: _191  and  _193
REMARK   78  A    between atoms: _193  and  _194
REMARK   79  A    between atoms: _193  and  _196
REMARK   80  A    between atoms: _196  and  _197
REMARK   81  A    between atoms: _200  and  _202
REMARK   82  A    between atoms: _202  and  _203
REMARK   83  A    between atoms: _205  and  _207
REMARK   84  A    between atoms: _207  and  _208
REMARK   85  A    between atoms: _207  and  _210
REMARK   86  A    between atoms: _210  and  _211
REMARK   87  A    between atoms: _213  and  _215
REMARK   88  A    between atoms: _215  and  _216
REMARK   89  A    between atoms: _215  and  _218
REMARK   90  A    between atoms: _218  and  _219
REMARK   91  A    between atoms: _221  and  _223
REMARK   92  A    between atoms: _223  and  _224
REMARK   93  A    between atoms: _223  and  _226
REMARK   94  A    between atoms: _226  and  _227
REMARK   95  A    between atoms: _227  and  _228
REMARK   96  A    between atoms: _233  and  _235
REMARK   97  A    between atoms: _235  and  _236
REMARK   98  A    between atoms: _235  and  _238
REMARK   99  A    between atoms: _238  and  _239
REMARK  100  A    between atoms: _245  and  _247
REMARK  101  A    between atoms: _247  and  _248
REMARK  102  A    between atoms: _247  and  _250
REMARK  103  A    between atoms: _250  and  _251
REMARK  104  A    between atoms: _254  and  _256
REMARK  105  A    between atoms: _256  and  _257
REMARK  106  A    between atoms: _256  and  _259
REMARK  107  A    between atoms: _259  and  _260
REMARK  108  A    between atoms: _265  and  _267
REMARK  109  A    between atoms: _267  and  _268
REMARK  110  A    between atoms: _267  and  _270
REMARK  111  A    between atoms: _270  and  _271
REMARK  112  A    between atoms: _276  and  _278
REMARK  113  A    between atoms: _278  and  _279
REMARK  114  A    between atoms: _281  and  _283
REMARK  115  A    between atoms: _283  and  _284
REMARK  116  A    between atoms: _283  and  _286
REMARK  117  A    between atoms: _286  and  _287
REMARK  118  A    between atoms: _290  and  _292
REMARK  119  A    between atoms: _292  and  _293
REMARK  120  A    between atoms: _292  and  _295
REMARK  121  A    between atoms: _295  and  _296
REMARK  122  A    between atoms: _299  and  _301
REMARK  123  A    between atoms: _301  and  _302
REMARK  124  A    between atoms: _304  and  _306
REMARK  125  A    between atoms: _306  and  _307
REMARK  126  A    between atoms: _306  and  _309
REMARK  127  A    between atoms: _309  and  _310
REMARK  128  A    between atoms: _313  and  _315
REMARK  129  A    between atoms: _315  and  _316
REMARK  130  A    between atoms: _319  and  _321
REMARK  131  A    between atoms: _321  and  _322
REMARK  132  A    between atoms: _321  and  _324
REMARK  133  A    between atoms: _324  and  _325
REMARK  134  A    between atoms: _328  and  _330
REMARK  135  A    between atoms: _330  and  _331
REMARK  136  A    between atoms: _330  and  _333
REMARK  137  A    between atoms: _333  and  _334
REMARK  138  A    between atoms: _337  and  _339
REMARK  139  A    between atoms: _339  and  _340
REMARK  140  A    between atoms: _339  and  _342
REMARK  141  A    between atoms: _342  and  _343
REMARK  142  A    between atoms: _349  and  _351
REMARK  143  A    between atoms: _351  and  _352
REMARK  144  A    between atoms: _351  and  _354
REMARK  145  A    between atoms: _354  and  _355
REMARK  146  A    between atoms: _365  and  _367
REMARK  147  A    between atoms: _367  and  _368
REMARK  148  A    between atoms: _367  and  _370
REMARK  149  A    between atoms: _370  and  _371
REMARK  150  A    between atoms: _374  and  _376
REMARK  151  A    between atoms: _376  and  _377
REMARK  152  A    between atoms: _380  and  _382
REMARK  153  A    between atoms: _382  and  _383
REMARK  154  A    between atoms: _382  and  _385
REMARK  155  A    between atoms: _385  and  _386
REMARK  156  A    between atoms: _389  and  _391
REMARK  157  A    between atoms: _391  and  _392
REMARK  158  A    between atoms: _391  and  _394
REMARK  159  A    between atoms: _394  and  _395
REMARK  160  A    between atoms: _398  and  _400
REMARK  161  A    between atoms: _400  and  _401
REMARK  162  A    between atoms: _403  and  _405
REMARK  163  A    between atoms: _405  and  _406
REMARK  164  A    between atoms: _405  and  _408
REMARK  165  A    between atoms: _408  and  _409
REMARK  166  A    between atoms: _412  and  _414
REMARK  167  A    between atoms: _414  and  _415
REMARK  168  A    between atoms: _414  and  _417
REMARK  169  A    between atoms: _417  and  _418
REMARK  170  A    between atoms: _421  and  _423
REMARK  171  A    between atoms: _423  and  _424
REMARK  172  A    between atoms: _423  and  _426
REMARK  173  A    between atoms: _426  and  _427
REMARK  174  A    between atoms: _430  and  _432
REMARK  175  A    between atoms: _432  and  _433
REMARK  176  A    between atoms: _432  and  _435
REMARK  177  A    between atoms: _435  and  _436
REMARK  178  A    between atoms: _439  and  _441
REMARK  179  A    between atoms: _441  and  _442
REMARK  180  A    between atoms: _441  and  _444
REMARK  181  A    between atoms: _444  and  _445
REMARK  182  A    between atoms: _448  and  _450
REMARK  183  A    between atoms: _450  and  _451
REMARK  184  A    between atoms: _454  and  _456
REMARK  185  A    between atoms: _456  and  _457
REMARK  186  A    between atoms: _459  and  _461
REMARK  187  A    between atoms: _461  and  _462
REMARK  188  A    between atoms: _464  and  _466
REMARK  189  A    between atoms: _466  and  _467
REMARK  190  A    between atoms: _466  and  _469
REMARK  191  A    between atoms: _469  and  _470
REMARK  192  A    between atoms: _475  and  _476
REMARK  193  A    between atoms: _479  and  _480
REMARK  194  A    between atoms: _485  and  _487
REMARK  195  A    between atoms: _487  and  _488
REMARK  196  A    between atoms: _487  and  _490
REMARK  197  A    between atoms: _490  and  _491
REMARK  198  A    between atoms: _493  and  _495
REMARK  199  A    between atoms: _495  and  _496
REMARK  200  A    between atoms: _495  and  _498
REMARK  201  A    between atoms: _498  and  _499
REMARK  202  A    between atoms: _502  and  _504
REMARK  203  A    between atoms: _504  and  _505
REMARK  204  A    between atoms: _507  and  _509
REMARK  205  A    between atoms: _509  and  _510
REMARK  206  A    between atoms: _509  and  _512
REMARK  207  A    between atoms: _512  and  _513
REMARK  208  A    between atoms: _513  and  _514
REMARK  209  A    between atoms: _519  and  _521
REMARK  210  A    between atoms: _521  and  _522
REMARK  211  A    between atoms: _521  and  _524
REMARK  212  A    between atoms: _524  and  _525
REMARK  213  A    between atoms: _527  and  _529
REMARK  214  A    between atoms: _529  and  _530
REMARK  215  A    between atoms: _529  and  _532
REMARK  216  A    between atoms: _532  and  _533
REMARK  217  A    between atoms: _538  and  _540
REMARK  218  A    between atoms: _540  and  _541
REMARK  219  A    between atoms: _540  and  _543
REMARK  220  A    between atoms: _543  and  _544
REMARK  221  A    between atoms: _546  and  _548
REMARK  222  A    between atoms: _548  and  _549
REMARK  223  A    between atoms: _548  and  _551
REMARK  224  A    between atoms: _551  and  _552
REMARK  225  A    between atoms: _555  and  _557
REMARK  226  A    between atoms: _557  and  _558
REMARK  227  A    between atoms: _557  and  _560
REMARK  228  A    between atoms: _560  and  _561
REMARK  229  A    between atoms: _567  and  _569
REMARK  230  A    between atoms: _569  and  _570
REMARK  231  A    between atoms: _569  and  _572
REMARK  232  A    between atoms: _572  and  _573
REMARK  233  A    between atoms: _575  and  _577
REMARK  234  A    between atoms: _577  and  _578
REMARK  235  A    between atoms: _577  and  _580
REMARK  236  A    between atoms: _580  and  _581
REMARK  237  A    between atoms: _584  and  _586
REMARK  238  A    between atoms: _586  and  _587
REMARK  239  A    between atoms: _586  and  _589
REMARK  240  A    between atoms: _589  and  _590
REMARK  241  A    between atoms: _596  and  _598
REMARK  242  A    between atoms: _598  and  _599
REMARK  243  A    between atoms: _601  and  _603
REMARK  244  A    between atoms: _603  and  _604
REMARK  245  A    between atoms: _603  and  _606
REMARK  246  A    between atoms: _606  and  _607
REMARK                            x       y       z     vdW  Elec       q    Type
REMARK                         _______ _______ _______ _____ _____    ______ ____
ROOT
ATOM      1  O   HOH     1      20.058   2.599  11.745  0.00  0.00    +0.000 OA
ENDROOT
TORSDOF 0
REMARK  Name = ../refined-set-2016/1ppl/1ppl_pocket.pdb
REMARK  246 active torsions:
REMARK  status: ('A' for Active; 'I' for Inactive)
REMARK    1  A    between atoms: _1  and  _3
REMARK    2  A    between atoms: _3  and  _4
REMARK    3  A    between atoms: _3  and  _6
REMARK    4  A    between atoms: _6  and  _7
REMARK    5  A    between atoms: _10  and  _12
REMARK    6  A    between atoms: _12  and  _13
REMARK    7  A    between atoms: _16  and  _18
REMARK    8  A    between atoms: _18  and  _19
REMARK    9  A    between atoms: _18  and  _21
REMARK   10  A    between atoms: _21  and  _22
REMARK   11  A    between atoms: _27  and  _29
REMARK   12  A    between atoms: _29  and  _30
REMARK   13  A    between atoms: _29  and  _32
REMARK   14  A    between atoms: _32  and  _33
REMARK   15  A    between atoms: _36  and  _38
REMARK   16  A    between atoms: _38  and  _39
REMARK   17  A    between atoms: _38  and  _41
REMARK   18  A    between atoms: _41  and  _42
REMARK   19  A    between atoms: _42  and  _43
REMARK   20  A    between atoms: _46  and  _48
REMARK   21  A    between atoms: _48  and  _49
REMARK   22  A    between atoms: _48  and  _51
REMARK   23  A    between atoms: _51  and  _52
REMARK   24  A    between atoms: _52  and  _53
REMARK   25  A    between atoms: _56  and  _58
REMARK   26  A    between atoms: _58  and  _59
REMARK   27  A    between atoms: _58  and  _61
REMARK   28  A    between atoms: _61  and  _62
REMARK   29  A    between atoms: _67  and  _68
REMARK   30  A    between atoms: _70  and  _72
REMARK   31  A    between atoms: _72  and  _73
REMARK   32  A    between atoms: _72  and  _75
REMARK   33  A    between atoms: _75  and  _76
REMARK   34  A    between atoms: _81  and  _83
REMARK   35  A    between atoms: _83  and  _84
REMARK   36  A    between atoms: _83  and  _86
REMARK   37  A    between atoms: _86  and  _87
REMARK   38  A    between atoms: _93  and  _95
REMARK   39  A    between atoms: _95  and  _96
REMARK   40  A    between atoms: _95  and  _98
REMARK   41  A    between atoms: _98  and  _99
REMARK   42  A    between atoms: _102  and  _104
REMARK   43  A    between atoms: _104  and  _105
REMARK   44  A    between atoms: _104  and  _107
REMARK   45  A    between atoms: _107  and  _108
REMARK   46  A    between atoms: _111  and  _113
REMARK   47  A    between atoms: _113  and  _114
REMARK   48  A    between atoms: _116  and  _118
REMARK   49  A    between atoms: _118  and  _119
REMARK   50  A    between atoms: _118  and  _121
REMARK   51  A    between atoms: _121  and  _122
REMARK   52  A    between atoms: _124  and  _126
REMARK   53  A    between atoms: _126  and  _127
REMARK   54  A    between atoms: _130  and  _132
REMARK   55  A    between atoms: _132  and  _133
REMARK   56  A    between atoms: _132  and  _135
REMARK   57  A    between atoms: _135  and  _136
REMARK   58  A    between atoms: _139  and  _141
REMARK   59  A    between atoms: _141  and  _142
REMARK   60  A    between atoms: _141  and  _144
REMARK   61  A    between atoms: _144  and  _145
REMARK   62  A    between atoms: _155  and  _157
REMARK   63  A    between atoms: _157  and  _158
REMARK   64  A    between atoms: _157  and  _160
REMARK   65  A    between atoms: _160  and  _161
REMARK   66  A    between atoms: _164  and  _166
REMARK   67  A    between atoms: _166  and  _167
REMARK   68  A    between atoms: _166  and  _169
REMARK   69  A    between atoms: _169  and  _170
REMARK   70  A    between atoms: _172  and  _174
REMARK   71  A    between atoms: _174  and  _175
REMARK   72  A    between atoms: _174  and  _177
REMARK   73  A    between atoms: _177  and  _178
REMARK   74  A    between atoms: _183  and  _184
REMARK   75  A    between atoms: _186  and  _188
REMARK   76  A    between atoms: _188  and  _189
REMARK   77  A    between atoms: _191  and  _193
REMARK   78  A    between atoms: _193  and  _194
REMARK   79  A    between atoms: _193  and  _196
REMARK   80  A    between atoms: _196  and  _197
REMARK   81  A    between atoms: _200  and  _202
REMARK   82  A    between atoms: _202  and  _203
REMARK   83  A    between atoms: _205  and  _207
REMARK   84  A    between atoms: _207  and  _208
REMARK   85  A    between atoms: _207  and  _210
REMARK   86  A    between atoms: _210  and  _211
REMARK   87  A    between atoms: _213  and  _215
REMARK   88  A    between atoms: _215  and  _216
REMARK   89  A    between atoms: _215  and  _218
REMARK   90  A    between atoms: _218  and  _219
REMARK   91  A    between atoms: _221  and  _223
REMARK   92  A    between atoms: _223  and  _224
REMARK   93  A    between atoms: _223  and  _226
REMARK   94  A    between atoms: _226  and  _227
REMARK   95  A    between atoms: _227  and  _228
REMARK   96  A    between atoms: _233  and  _235
REMARK   97  A    between atoms: _235  and  _236
REMARK   98  A    between atoms: _235  and  _238
REMARK   99  A    between atoms: _238  and  _239
REMARK  100  A    between atoms: _245  and  _247
REMARK  101  A    between atoms: _247  and  _248
REMARK  102  A    between atoms: _247  and  _250
REMARK  103  A    between atoms: _250  and  _251
REMARK  104  A    between atoms: _254  and  _256
REMARK  105  A    between atoms: _256  and  _257
REMARK  106  A    between atoms: _256  and  _259
REMARK  107  A    between atoms: _259  and  _260
REMARK  108  A    between atoms: _265  and  _267
REMARK  109  A    between atoms: _267  and  _268
REMARK  110  A    between atoms: _267  and  _270
REMARK  111  A    between atoms: _270  and  _271
REMARK  112  A    between atoms: _276  and  _278
REMARK  113  A    between atoms: _278  and  _279
REMARK  114  A    between atoms: _281  and  _283
REMARK  115  A    between atoms: _283  and  _284
REMARK  116  A    between atoms: _283  and  _286
REMARK  117  A    between atoms: _286  and  _287
REMARK  118  A    between atoms: _290  and  _292
REMARK  119  A    between atoms: _292  and  _293
REMARK  120  A    between atoms: _292  and  _295
REMARK  121  A    between atoms: _295  and  _296
REMARK  122  A    between atoms: _299  and  _301
REMARK  123  A    between atoms: _301  and  _302
REMARK  124  A    between atoms: _304  and  _306
REMARK  125  A    between atoms: _306  and  _307
REMARK  126  A    between atoms: _306  and  _309
REMARK  127  A    between atoms: _309  and  _310
REMARK  128  A    between atoms: _313  and  _315
REMARK  129  A    between atoms: _315  and  _316
REMARK  130  A    between atoms: _319  and  _321
REMARK  131  A    between atoms: _321  and  _322
REMARK  132  A    between atoms: _321  and  _324
REMARK  133  A    between atoms: _324  and  _325
REMARK  134  A    between atoms: _328  and  _330
REMARK  135  A    between atoms: _330  and  _331
REMARK  136  A    between atoms: _330  and  _333
REMARK  137  A    between atoms: _333  and  _334
REMARK  138  A    between atoms: _337  and  _339
REMARK  139  A    between atoms: _339  and  _340
REMARK  140  A    between atoms: _339  and  _342
REMARK  141  A    between atoms: _342  and  _343
REMARK  142  A    between atoms: _349  and  _351
REMARK  143  A    between atoms: _351  and  _352
REMARK  144  A    between atoms: _351  and  _354
REMARK  145  A    between atoms: _354  and  _355
REMARK  146  A    between atoms: _365  and  _367
REMARK  147  A    between atoms: _367  and  _368
REMARK  148  A    between atoms: _367  and  _370
REMARK  149  A    between atoms: _370  and  _371
REMARK  150  A    between atoms: _374  and  _376
REMARK  151  A    between atoms: _376  and  _377
REMARK  152  A    between atoms: _380  and  _382
REMARK  153  A    between atoms: _382  and  _383
REMARK  154  A    between atoms: _382  and  _385
REMARK  155  A    between atoms: _385  and  _386
REMARK  156  A    between atoms: _389  and  _391
REMARK  157  A    between atoms: _391  and  _392
REMARK  158  A    between atoms: _391  and  _394
REMARK  159  A    between atoms: _394  and  _395
REMARK  160  A    between atoms: _398  and  _400
REMARK  161  A    between atoms: _400  and  _401
REMARK  162  A    between atoms: _403  and  _405
REMARK  163  A    between atoms: _405  and  _406
REMARK  164  A    between atoms: _405  and  _408
REMARK  165  A    between atoms: _408  and  _409
REMARK  166  A    between atoms: _412  and  _414
REMARK  167  A    between atoms: _414  and  _415
REMARK  168  A    between atoms: _414  and  _417
REMARK  169  A    between atoms: _417  and  _418
REMARK  170  A    between atoms: _421  and  _423
REMARK  171  A    between atoms: _423  and  _424
REMARK  172  A    between atoms: _423  and  _426
REMARK  173  A    between atoms: _426  and  _427
REMARK  174  A    between atoms: _430  and  _432
REMARK  175  A    between atoms: _432  and  _433
REMARK  176  A    between atoms: _432  and  _435
REMARK  177  A    between atoms: _435  and  _436
REMARK  178  A    between atoms: _439  and  _441
REMARK  179  A    between atoms: _441  and  _442
REMARK  180  A    between atoms: _441  and  _444
REMARK  181  A    between atoms: _444  and  _445
REMARK  182  A    between atoms: _448  and  _450
REMARK  183  A    between atoms: _450  and  _451
REMARK  184  A    between atoms: _454  and  _456
REMARK  185  A    between atoms: _456  and  _457
REMARK  186  A    between atoms: _459  and  _461
REMARK  187  A    between atoms: _461  and  _462
REMARK  188  A    between atoms: _464  and  _466
REMARK  189  A    between atoms: _466  and  _467
REMARK  190  A    between atoms: _466  and  _469
REMARK  191  A    between atoms: _469  and  _470
REMARK  192  A    between atoms: _475  and  _476
REMARK  193  A    between atoms: _479  and  _480
REMARK  194  A    between atoms: _485  and  _487
REMARK  195  A    between atoms: _487  and  _488
REMARK  196  A    between atoms: _487  and  _490
REMARK  197  A    between atoms: _490  and  _491
REMARK  198  A    between atoms: _493  and  _495
REMARK  199  A    between atoms: _495  and  _496
REMARK  200  A    between atoms: _495  and  _498
REMARK  201  A    between atoms: _498  and  _499
REMARK  202  A    between atoms: _502  and  _504
REMARK  203  A    between atoms: _504  and  _505
REMARK  204  A    between atoms: _507  and  _509
REMARK  205  A    between atoms: _509  and  _510
REMARK  206  A    between atoms: _509  and  _512
REMARK  207  A    between atoms: _512  and  _513
REMARK  208  A    between atoms: _513  and  _514
REMARK  209  A    between atoms: _519  and  _521
REMARK  210  A    between atoms: _521  and  _522
REMARK  211  A    between atoms: _521  and  _524
REMARK  212  A    between atoms: _524  and  _525
REMARK  213  A    between atoms: _527  and  _529
REMARK  214  A    between atoms: _529  and  _530
REMARK  215  A    between atoms: _529  and  _532
REMARK  216  A    between atoms: _532  and  _533
REMARK  217  A    between atoms: _538  and  _540
REMARK  218  A    between atoms: _540  and  _541
REMARK  219  A    between atoms: _540  and  _543
REMARK  220  A    between atoms: _543  and  _544
REMARK  221  A    between atoms: _546  and  _548
REMARK  222  A    between atoms: _548  and  _549
REMARK  223  A    between atoms: _548  and  _551
REMARK  224  A    between atoms: _551  and  _552
REMARK  225  A    between atoms: _555  and  _557
REMARK  226  A    between atoms: _557  and  _558
REMARK  227  A    between atoms: _557  and  _560
REMARK  228  A    between atoms: _560  and  _561
REMARK  229  A    between atoms: _567  and  _569
REMARK  230  A    between atoms: _569  and  _570
REMARK  231  A    between atoms: _569  and  _572
REMARK  232  A    between atoms: _572  and  _573
REMARK  233  A    between atoms: _575  and  _577
REMARK  234  A    between atoms: _577  and  _578
REMARK  235  A    between atoms: _577  and  _580
REMARK  236  A    between atoms: _580  and  _581
REMARK  237  A    between atoms: _584  and  _586
REMARK  238  A    between atoms: _586  and  _587
REMARK  239  A    between atoms: _586  and  _589
REMARK  240  A    between atoms: _589  and  _590
REMARK  241  A    between atoms: _596  and  _598
REMARK  242  A    between atoms: _598  and  _599
REMARK  243  A    between atoms: _601  and  _603
REMARK  244  A    between atoms: _603  and  _604
REMARK  245  A    between atoms: _603  and  _606
REMARK  246  A    between atoms: _606  and  _607
REMARK                            x       y       z     vdW  Elec       q    Type
REMARK                         _______ _______ _______ _____ _____    ______ ____
ROOT
ATOM      1  O   HOH     1      25.117  10.439  28.485  0.00  0.00    +0.000 OA
ENDROOT
TORSDOF 0
REMARK  Name = ../refined-set-2016/1ppl/1ppl_pocket.pdb
REMARK  246 active torsions:
REMARK  status: ('A' for Active; 'I' for Inactive)
REMARK    1  A    between atoms: _1  and  _3
REMARK    2  A    between atoms: _3  and  _4
REMARK    3  A    between atoms: _3  and  _6
REMARK    4  A    between atoms: _6  and  _7
REMARK    5  A    between atoms: _10  and  _12
REMARK    6  A    between atoms: _12  and  _13
REMARK    7  A    between atoms: _16  and  _18
REMARK    8  A    between atoms: _18  and  _19
REMARK    9  A    between atoms: _18  and  _21
REMARK   10  A    between atoms: _21  and  _22
REMARK   11  A    between atoms: _27  and  _29
REMARK   12  A    between atoms: _29  and  _30
REMARK   13  A    between atoms: _29  and  _32
REMARK   14  A    between atoms: _32  and  _33
REMARK   15  A    between atoms: _36  and  _38
REMARK   16  A    between atoms: _38  and  _39
REMARK   17  A    between atoms: _38  and  _41
REMARK   18  A    between atoms: _41  and  _42
REMARK   19  A    between atoms: _42  and  _43
REMARK   20  A    between atoms: _46  and  _48
REMARK   21  A    between atoms: _48  and  _49
REMARK   22  A    between atoms: _48  and  _51
REMARK   23  A    between atoms: _51  and  _52
REMARK   24  A    between atoms: _52  and  _53
REMARK   25  A    between atoms: _56  and  _58
REMARK   26  A    between atoms: _58  and  _59
REMARK   27  A    between atoms: _58  and  _61
REMARK   28  A    between atoms: _61  and  _62
REMARK   29  A    between atoms: _67  and  _68
REMARK   30  A    between atoms: _70  and  _72
REMARK   31  A    between atoms: _72  and  _73
REMARK   32  A    between atoms: _72  and  _75
REMARK   33  A    between atoms: _75  and  _76
REMARK   34  A    between atoms: _81  and  _83
REMARK   35  A    between atoms: _83  and  _84
REMARK   36  A    between atoms: _83  and  _86
REMARK   37  A    between atoms: _86  and  _87
REMARK   38  A    between atoms: _93  and  _95
REMARK   39  A    between atoms: _95  and  _96
REMARK   40  A    between atoms: _95  and  _98
REMARK   41  A    between atoms: _98  and  _99
REMARK   42  A    between atoms: _102  and  _104
REMARK   43  A    between atoms: _104  and  _105
REMARK   44  A    between atoms: _104  and  _107
REMARK   45  A    between atoms: _107  and  _108
REMARK   46  A    between atoms: _111  and  _113
REMARK   47  A    between atoms: _113  and  _114
REMARK   48  A    between atoms: _116  and  _118
REMARK   49  A    between atoms: _118  and  _119
REMARK   50  A    between atoms: _118  and  _121
REMARK   51  A    between atoms: _121  and  _122
REMARK   52  A    between atoms: _124  and  _126
REMARK   53  A    between atoms: _126  and  _127
REMARK   54  A    between atoms: _130  and  _132
REMARK   55  A    between atoms: _132  and  _133
REMARK   56  A    between atoms: _132  and  _135
REMARK   57  A    between atoms: _135  and  _136
REMARK   58  A    between atoms: _139  and  _141
REMARK   59  A    between atoms: _141  and  _142
REMARK   60  A    between atoms: _141  and  _144
REMARK   61  A    between atoms: _144  and  _145
REMARK   62  A    between atoms: _155  and  _157
REMARK   63  A    between atoms: _157  and  _158
REMARK   64  A    between atoms: _157  and  _160
REMARK   65  A    between atoms: _160  and  _161
REMARK   66  A    between atoms: _164  and  _166
REMARK   67  A    between atoms: _166  and  _167
REMARK   68  A    between atoms: _166  and  _169
REMARK   69  A    between atoms: _169  and  _170
REMARK   70  A    between atoms: _172  and  _174
REMARK   71  A    between atoms: _174  and  _175
REMARK   72  A    between atoms: _174  and  _177
REMARK   73  A    between atoms: _177  and  _178
REMARK   74  A    between atoms: _183  and  _184
REMARK   75  A    between atoms: _186  and  _188
REMARK   76  A    between atoms: _188  and  _189
REMARK   77  A    between atoms: _191  and  _193
REMARK   78  A    between atoms: _193  and  _194
REMARK   79  A    between atoms: _193  and  _196
REMARK   80  A    between atoms: _196  and  _197
REMARK   81  A    between atoms: _200  and  _202
REMARK   82  A    between atoms: _202  and  _203
REMARK   83  A    between atoms: _205  and  _207
REMARK   84  A    between atoms: _207  and  _208
REMARK   85  A    between atoms: _207  and  _210
REMARK   86  A    between atoms: _210  and  _211
REMARK   87  A    between atoms: _213  and  _215
REMARK   88  A    between atoms: _215  and  _216
REMARK   89  A    between atoms: _215  and  _218
REMARK   90  A    between atoms: _218  and  _219
REMARK   91  A    between atoms: _221  and  _223
REMARK   92  A    between atoms: _223  and  _224
REMARK   93  A    between atoms: _223  and  _226
REMARK   94  A    between atoms: _226  and  _227
REMARK   95  A    between atoms: _227  and  _228
REMARK   96  A    between atoms: _233  and  _235
REMARK   97  A    between atoms: _235  and  _236
REMARK   98  A    between atoms: _235  and  _238
REMARK   99  A    between atoms: _238  and  _239
REMARK  100  A    between atoms: _245  and  _247
REMARK  101  A    between atoms: _247  and  _248
REMARK  102  A    between atoms: _247  and  _250
REMARK  103  A    between atoms: _250  and  _251
REMARK  104  A    between atoms: _254  and  _256
REMARK  105  A    between atoms: _256  and  _257
REMARK  106  A    between atoms: _256  and  _259
REMARK  107  A    between atoms: _259  and  _260
REMARK  108  A    between atoms: _265  and  _267
REMARK  109  A    between atoms: _267  and  _268
REMARK  110  A    between atoms: _267  and  _270
REMARK  111  A    between atoms: _270  and  _271
REMARK  112  A    between atoms: _276  and  _278
REMARK  113  A    between atoms: _278  and  _279
REMARK  114  A    between atoms: _281  and  _283
REMARK  115  A    between atoms: _283  and  _284
REMARK  116  A    between atoms: _283  and  _286
REMARK  117  A    between atoms: _286  and  _287
REMARK  118  A    between atoms: _290  and  _292
REMARK  119  A    between atoms: _292  and  _293
REMARK  120  A    between atoms: _292  and  _295
REMARK  121  A    between atoms: _295  and  _296
REMARK  122  A    between atoms: _299  and  _301
REMARK  123  A    between atoms: _301  and  _302
REMARK  124  A    between atoms: _304  and  _306
REMARK  125  A    between atoms: _306  and  _307
REMARK  126  A    between atoms: _306  and  _309
REMARK  127  A    between atoms: _309  and  _310
REMARK  128  A    between atoms: _313  and  _315
REMARK  129  A    between atoms: _315  and  _316
REMARK  130  A    between atoms: _319  and  _321
REMARK  131  A    between atoms: _321  and  _322
REMARK  132  A    between atoms: _321  and  _324
REMARK  133  A    between atoms: _324  and  _325
REMARK  134  A    between atoms: _328  and  _330
REMARK  135  A    between atoms: _330  and  _331
REMARK  136  A    between atoms: _330  and  _333
REMARK  137  A    between atoms: _333  and  _334
REMARK  138  A    between atoms: _337  and  _339
REMARK  139  A    between atoms: _339  and  _340
REMARK  140  A    between atoms: _339  and  _342
REMARK  141  A    between atoms: _342  and  _343
REMARK  142  A    between atoms: _349  and  _351
REMARK  143  A    between atoms: _351  and  _352
REMARK  144  A    between atoms: _351  and  _354
REMARK  145  A    between atoms: _354  and  _355
REMARK  146  A    between atoms: _365  and  _367
REMARK  147  A    between atoms: _367  and  _368
REMARK  148  A    between atoms: _367  and  _370
REMARK  149  A    between atoms: _370  and  _371
REMARK  150  A    between atoms: _374  and  _376
REMARK  151  A    between atoms: _376  and  _377
REMARK  152  A    between atoms: _380  and  _382
REMARK  153  A    between atoms: _382  and  _383
REMARK  154  A    between atoms: _382  and  _385
REMARK  155  A    between atoms: _385  and  _386
REMARK  156  A    between atoms: _389  and  _391
REMARK  157  A    between atoms: _391  and  _392
REMARK  158  A    between atoms: _391  and  _394
REMARK  159  A    between atoms: _394  and  _395
REMARK  160  A    between atoms: _398  and  _400
REMARK  161  A    between atoms: _400  and  _401
REMARK  162  A    between atoms: _403  and  _405
REMARK  163  A    between atoms: _405  and  _406
REMARK  164  A    between atoms: _405  and  _408
REMARK  165  A    between atoms: _408  and  _409
REMARK  166  A    between atoms: _412  and  _414
REMARK  167  A    between atoms: _414  and  _415
REMARK  168  A    between atoms: _414  and  _417
REMARK  169  A    between atoms: _417  and  _418
REMARK  170  A    between atoms: _421  and  _423
REMARK  171  A    between atoms: _423  and  _424
REMARK  172  A    between atoms: _423  and  _426
REMARK  173  A    between atoms: _426  and  _427
REMARK  174  A    between atoms: _430  and  _432
REMARK  175  A    between atoms: _432  and  _433
REMARK  176  A    between atoms: _432  and  _435
REMARK  177  A    between atoms: _435  and  _436
REMARK  178  A    between atoms: _439  and  _441
REMARK  179  A    between atoms: _441  and  _442
REMARK  180  A    between atoms: _441  and  _444
REMARK  181  A    between atoms: _444  and  _445
REMARK  182  A    between atoms: _448  and  _450
REMARK  183  A    between atoms: _450  and  _451
REMARK  184  A    between atoms: _454  and  _456
REMARK  185  A    between atoms: _456  and  _457
REMARK  186  A    between atoms: _459  and  _461
REMARK  187  A    between atoms: _461  and  _462
REMARK  188  A    between atoms: _464  and  _466
REMARK  189  A    between atoms: _466  and  _467
REMARK  190  A    between atoms: _466  and  _469
REMARK  191  A    between atoms: _469  and  _470
REMARK  192  A    between atoms: _475  and  _476
REMARK  193  A    between atoms: _479  and  _480
REMARK  194  A    between atoms: _485  and  _487
REMARK  195  A    between atoms: _487  and  _488
REMARK  196  A    between atoms: _487  and  _490
REMARK  197  A    between atoms: _490  and  _491
REMARK  198  A    between atoms: _493  and  _495
REMARK  199  A    between atoms: _495  and  _496
REMARK  200  A    between atoms: _495  and  _498
REMARK  201  A    between atoms: _498  and  _499
REMARK  202  A    between atoms: _502  and  _504
REMARK  203  A    between atoms: _504  and  _505
REMARK  204  A    between atoms: _507  and  _509
REMARK  205  A    between atoms: _509  and  _510
REMARK  206  A    between atoms: _509  and  _512
REMARK  207  A    between atoms: _512  and  _513
REMARK  208  A    between atoms: _513  and  _514
REMARK  209  A    between atoms: _519  and  _521
REMARK  210  A    between atoms: _521  and  _522
REMARK  211  A    between atoms: _521  and  _524
REMARK  212  A    between atoms: _524  and  _525
REMARK  213  A    between atoms: _527  and  _529
REMARK  214  A    between atoms: _529  and  _530
REMARK  215  A    between atoms: _529  and  _532
REMARK  216  A    between atoms: _532  and  _533
REMARK  217  A    between atoms: _538  and  _540
REMARK  218  A    between atoms: _540  and  _541
REMARK  219  A    between atoms: _540  and  _543
REMARK  220  A    between atoms: _543  and  _544
REMARK  221  A    between atoms: _546  and  _548
REMARK  222  A    between atoms: _548  and  _549
REMARK  223  A    between atoms: _548  and  _551
REMARK  224  A    between atoms: _551  and  _552
REMARK  225  A    between atoms: _555  and  _557
REMARK  226  A    between atoms: _557  and  _558
REMARK  227  A    between atoms: _557  and  _560
REMARK  228  A    between atoms: _560  and  _561
REMARK  229  A    between atoms: _567  and  _569
REMARK  230  A    between atoms: _569  and  _570
REMARK  231  A    between atoms: _569  and  _572
REMARK  232  A    between atoms: _572  and  _573
REMARK  233  A    between atoms: _575  and  _577
REMARK  234  A    between atoms: _577  and  _578
REMARK  235  A    between atoms: _577  and  _580
REMARK  236  A    between atoms: _580  and  _581
REMARK  237  A    between atoms: _584  and  _586
REMARK  238  A    between atoms: _586  and  _587
REMARK  239  A    between atoms: _586  and  _589
REMARK  240  A    between atoms: _589  and  _590
REMARK  241  A    between atoms: _596  and  _598
REMARK  242  A    between atoms: _598  and  _599
REMARK  243  A    between atoms: _601  and  _603
REMARK  244  A    between atoms: _603  and  _604
REMARK  245  A    between atoms: _603  and  _606
REMARK  246  A    between atoms: _606  and  _607
REMARK                            x       y       z     vdW  Elec       q    Type
REMARK                         _______ _______ _______ _____ _____    ______ ____
ROOT
ATOM      1  O   HOH     1      18.631   9.289  29.448  0.00  0.00    +0.000 OA
ENDROOT
TORSDOF 0
REMARK  Name = ../refined-set-2016/1ppl/1ppl_pocket.pdb
REMARK  246 active torsions:
REMARK  status: ('A' for Active; 'I' for Inactive)
REMARK    1  A    between atoms: _1  and  _3
REMARK    2  A    between atoms: _3  and  _4
REMARK    3  A    between atoms: _3  and  _6
REMARK    4  A    between atoms: _6  and  _7
REMARK    5  A    between atoms: _10  and  _12
REMARK    6  A    between atoms: _12  and  _13
REMARK    7  A    between atoms: _16  and  _18
REMARK    8  A    between atoms: _18  and  _19
REMARK    9  A    between atoms: _18  and  _21
REMARK   10  A    between atoms: _21  and  _22
REMARK   11  A    between atoms: _27  and  _29
REMARK   12  A    between atoms: _29  and  _30
REMARK   13  A    between atoms: _29  and  _32
REMARK   14  A    between atoms: _32  and  _33
REMARK   15  A    between atoms: _36  and  _38
REMARK   16  A    between atoms: _38  and  _39
REMARK   17  A    between atoms: _38  and  _41
REMARK   18  A    between atoms: _41  and  _42
REMARK   19  A    between atoms: _42  and  _43
REMARK   20  A    between atoms: _46  and  _48
REMARK   21  A    between atoms: _48  and  _49
REMARK   22  A    between atoms: _48  and  _51
REMARK   23  A    between atoms: _51  and  _52
REMARK   24  A    between atoms: _52  and  _53
REMARK   25  A    between atoms: _56  and  _58
REMARK   26  A    between atoms: _58  and  _59
REMARK   27  A    between atoms: _58  and  _61
REMARK   28  A    between atoms: _61  and  _62
REMARK   29  A    between atoms: _67  and  _68
REMARK   30  A    between atoms: _70  and  _72
REMARK   31  A    between atoms: _72  and  _73
REMARK   32  A    between atoms: _72  and  _75
REMARK   33  A    between atoms: _75  and  _76
REMARK   34  A    between atoms: _81  and  _83
REMARK   35  A    between atoms: _83  and  _84
REMARK   36  A    between atoms: _83  and  _86
REMARK   37  A    between atoms: _86  and  _87
REMARK   38  A    between atoms: _93  and  _95
REMARK   39  A    between atoms: _95  and  _96
REMARK   40  A    between atoms: _95  and  _98
REMARK   41  A    between atoms: _98  and  _99
REMARK   42  A    between atoms: _102  and  _104
REMARK   43  A    between atoms: _104  and  _105
REMARK   44  A    between atoms: _104  and  _107
REMARK   45  A    between atoms: _107  and  _108
REMARK   46  A    between atoms: _111  and  _113
REMARK   47  A    between atoms: _113  and  _114
REMARK   48  A    between atoms: _116  and  _118
REMARK   49  A    between atoms: _118  and  _119
REMARK   50  A    between atoms: _118  and  _121
REMARK   51  A    between atoms: _121  and  _122
REMARK   52  A    between atoms: _124  and  _126
REMARK   53  A    between atoms: _126  and  _127
REMARK   54  A    between atoms: _130  and  _132
REMARK   55  A    between atoms: _132  and  _133
REMARK   56  A    between atoms: _132  and  _135
REMARK   57  A    between atoms: _135  and  _136
REMARK   58  A    between atoms: _139  and  _141
REMARK   59  A    between atoms: _141  and  _142
REMARK   60  A    between atoms: _141  and  _144
REMARK   61  A    between atoms: _144  and  _145
REMARK   62  A    between atoms: _155  and  _157
REMARK   63  A    between atoms: _157  and  _158
REMARK   64  A    between atoms: _157  and  _160
REMARK   65  A    between atoms: _160  and  _161
REMARK   66  A    between atoms: _164  and  _166
REMARK   67  A    between atoms: _166  and  _167
REMARK   68  A    between atoms: _166  and  _169
REMARK   69  A    between atoms: _169  and  _170
REMARK   70  A    between atoms: _172  and  _174
REMARK   71  A    between atoms: _174  and  _175
REMARK   72  A    between atoms: _174  and  _177
REMARK   73  A    between atoms: _177  and  _178
REMARK   74  A    between atoms: _183  and  _184
REMARK   75  A    between atoms: _186  and  _188
REMARK   76  A    between atoms: _188  and  _189
REMARK   77  A    between atoms: _191  and  _193
REMARK   78  A    between atoms: _193  and  _194
REMARK   79  A    between atoms: _193  and  _196
REMARK   80  A    between atoms: _196  and  _197
REMARK   81  A    between atoms: _200  and  _202
REMARK   82  A    between atoms: _202  and  _203
REMARK   83  A    between atoms: _205  and  _207
REMARK   84  A    between atoms: _207  and  _208
REMARK   85  A    between atoms: _207  and  _210
REMARK   86  A    between atoms: _210  and  _211
REMARK   87  A    between atoms: _213  and  _215
REMARK   88  A    between atoms: _215  and  _216
REMARK   89  A    between atoms: _215  and  _218
REMARK   90  A    between atoms: _218  and  _219
REMARK   91  A    between atoms: _221  and  _223
REMARK   92  A    between atoms: _223  and  _224
REMARK   93  A    between atoms: _223  and  _226
REMARK   94  A    between atoms: _226  and  _227
REMARK   95  A    between atoms: _227  and  _228
REMARK   96  A    between atoms: _233  and  _235
REMARK   97  A    between atoms: _235  and  _236
REMARK   98  A    between atoms: _235  and  _238
REMARK   99  A    between atoms: _238  and  _239
REMARK  100  A    between atoms: _245  and  _247
REMARK  101  A    between atoms: _247  and  _248
REMARK  102  A    between atoms: _247  and  _250
REMARK  103  A    between atoms: _250  and  _251
REMARK  104  A    between atoms: _254  and  _256
REMARK  105  A    between atoms: _256  and  _257
REMARK  106  A    between atoms: _256  and  _259
REMARK  107  A    between atoms: _259  and  _260
REMARK  108  A    between atoms: _265  and  _267
REMARK  109  A    between atoms: _267  and  _268
REMARK  110  A    between atoms: _267  and  _270
REMARK  111  A    between atoms: _270  and  _271
REMARK  112  A    between atoms: _276  and  _278
REMARK  113  A    between atoms: _278  and  _279
REMARK  114  A    between atoms: _281  and  _283
REMARK  115  A    between atoms: _283  and  _284
REMARK  116  A    between atoms: _283  and  _286
REMARK  117  A    between atoms: _286  and  _287
REMARK  118  A    between atoms: _290  and  _292
REMARK  119  A    between atoms: _292  and  _293
REMARK  120  A    between atoms: _292  and  _295
REMARK  121  A    between atoms: _295  and  _296
REMARK  122  A    between atoms: _299  and  _301
REMARK  123  A    between atoms: _301  and  _302
REMARK  124  A    between atoms: _304  and  _306
REMARK  125  A    between atoms: _306  and  _307
REMARK  126  A    between atoms: _306  and  _309
REMARK  127  A    between atoms: _309  and  _310
REMARK  128  A    between atoms: _313  and  _315
REMARK  129  A    between atoms: _315  and  _316
REMARK  130  A    between atoms: _319  and  _321
REMARK  131  A    between atoms: _321  and  _322
REMARK  132  A    between atoms: _321  and  _324
REMARK  133  A    between atoms: _324  and  _325
REMARK  134  A    between atoms: _328  and  _330
REMARK  135  A    between atoms: _330  and  _331
REMARK  136  A    between atoms: _330  and  _333
REMARK  137  A    between atoms: _333  and  _334
REMARK  138  A    between atoms: _337  and  _339
REMARK  139  A    between atoms: _339  and  _340
REMARK  140  A    between atoms: _339  and  _342
REMARK  141  A    between atoms: _342  and  _343
REMARK  142  A    between atoms: _349  and  _351
REMARK  143  A    between atoms: _351  and  _352
REMARK  144  A    between atoms: _351  and  _354
REMARK  145  A    between atoms: _354  and  _355
REMARK  146  A    between atoms: _365  and  _367
REMARK  147  A    between atoms: _367  and  _368
REMARK  148  A    between atoms: _367  and  _370
REMARK  149  A    between atoms: _370  and  _371
REMARK  150  A    between atoms: _374  and  _376
REMARK  151  A    between atoms: _376  and  _377
REMARK  152  A    between atoms: _380  and  _382
REMARK  153  A    between atoms: _382  and  _383
REMARK  154  A    between atoms: _382  and  _385
REMARK  155  A    between atoms: _385  and  _386
REMARK  156  A    between atoms: _389  and  _391
REMARK  157  A    between atoms: _391  and  _392
REMARK  158  A    between atoms: _391  and  _394
REMARK  159  A    between atoms: _394  and  _395
REMARK  160  A    between atoms: _398  and  _400
REMARK  161  A    between atoms: _400  and  _401
REMARK  162  A    between atoms: _403  and  _405
REMARK  163  A    between atoms: _405  and  _406
REMARK  164  A    between atoms: _405  and  _408
REMARK  165  A    between atoms: _408  and  _409
REMARK  166  A    between atoms: _412  and  _414
REMARK  167  A    between atoms: _414  and  _415
REMARK  168  A    between atoms: _414  and  _417
REMARK  169  A    between atoms: _417  and  _418
REMARK  170  A    between atoms: _421  and  _423
REMARK  171  A    between atoms: _423  and  _424
REMARK  172  A    between atoms: _423  and  _426
REMARK  173  A    between atoms: _426  and  _427
REMARK  174  A    between atoms: _430  and  _432
REMARK  175  A    between atoms: _432  and  _433
REMARK  176  A    between atoms: _432  and  _435
REMARK  177  A    between atoms: _435  and  _436
REMARK  178  A    between atoms: _439  and  _441
REMARK  179  A    between atoms: _441  and  _442
REMARK  180  A    between atoms: _441  and  _444
REMARK  181  A    between atoms: _444  and  _445
REMARK  182  A    between atoms: _448  and  _450
REMARK  183  A    between atoms: _450  and  _451
REMARK  184  A    between atoms: _454  and  _456
REMARK  185  A    between atoms: _456  and  _457
REMARK  186  A    between atoms: _459  and  _461
REMARK  187  A    between atoms: _461  and  _462
REMARK  188  A    between atoms: _464  and  _466
REMARK  189  A    between atoms: _466  and  _467
REMARK  190  A    between atoms: _466  and  _469
REMARK  191  A    between atoms: _469  and  _470
REMARK  192  A    between atoms: _475  and  _476
REMARK  193  A    between atoms: _479  and  _480
REMARK  194  A    between atoms: _485  and  _487
REMARK  195  A    between atoms: _487  and  _488
REMARK  196  A    between atoms: _487  and  _490
REMARK  197  A    between atoms: _490  and  _491
REMARK  198  A    between atoms: _493  and  _495
REMARK  199  A    between atoms: _495  and  _496
REMARK  200  A    between atoms: _495  and  _498
REMARK  201  A    between atoms: _498  and  _499
REMARK  202  A    between atoms: _502  and  _504
REMARK  203  A    between atoms: _504  and  _505
REMARK  204  A    between atoms: _507  and  _509
REMARK  205  A    between atoms: _509  and  _510
REMARK  206  A    between atoms: _509  and  _512
REMARK  207  A    between atoms: _512  and  _513
REMARK  208  A    between atoms: _513  and  _514
REMARK  209  A    between atoms: _519  and  _521
REMARK  210  A    between atoms: _521  and  _522
REMARK  211  A    between atoms: _521  and  _524
REMARK  212  A    between atoms: _524  and  _525
REMARK  213  A    between atoms: _527  and  _529
REMARK  214  A    between atoms: _529  and  _530
REMARK  215  A    between atoms: _529  and  _532
REMARK  216  A    between atoms: _532  and  _533
REMARK  217  A    between atoms: _538  and  _540
REMARK  218  A    between atoms: _540  and  _541
REMARK  219  A    between atoms: _540  and  _543
REMARK  220  A    between atoms: _543  and  _544
REMARK  221  A    between atoms: _546  and  _548
REMARK  222  A    between atoms: _548  and  _549
REMARK  223  A    between atoms: _548  and  _551
REMARK  224  A    between atoms: _551  and  _552
REMARK  225  A    between atoms: _555  and  _557
REMARK  226  A    between atoms: _557  and  _558
REMARK  227  A    between atoms: _557  and  _560
REMARK  228  A    between atoms: _560  and  _561
REMARK  229  A    between atoms: _567  and  _569
REMARK  230  A    between atoms: _569  and  _570
REMARK  231  A    between atoms: _569  and  _572
REMARK  232  A    between atoms: _572  and  _573
REMARK  233  A    between atoms: _575  and  _577
REMARK  234  A    between atoms: _577  and  _578
REMARK  235  A    between atoms: _577  and  _580
REMARK  236  A    between atoms: _580  and  _581
REMARK  237  A    between atoms: _584  and  _586
REMARK  238  A    between atoms: _586  and  _587
REMARK  239  A    between atoms: _586  and  _589
REMARK  240  A    between atoms: _589  and  _590
REMARK  241  A    between atoms: _596  and  _598
REMARK  242  A    between atoms: _598  and  _599
REMARK  243  A    between atoms: _601  and  _603
REMARK  244  A    between atoms: _603  and  _604
REMARK  245  A    between atoms: _603  and  _606
REMARK  246  A    between atoms: _606  and  _607
REMARK                            x       y       z     vdW  Elec       q    Type
REMARK                         _______ _______ _______ _____ _____    ______ ____
ROOT
ATOM      1  O   HOH     1      24.792   6.128  29.281  0.00  0.00    +0.000 OA
ENDROOT
TORSDOF 0
REMARK  Name = ../refined-set-2016/1ppl/1ppl_pocket.pdb
REMARK  246 active torsions:
REMARK  status: ('A' for Active; 'I' for Inactive)
REMARK    1  A    between atoms: _1  and  _3
REMARK    2  A    between atoms: _3  and  _4
REMARK    3  A    between atoms: _3  and  _6
REMARK    4  A    between atoms: _6  and  _7
REMARK    5  A    between atoms: _10  and  _12
REMARK    6  A    between atoms: _12  and  _13
REMARK    7  A    between atoms: _16  and  _18
REMARK    8  A    between atoms: _18  and  _19
REMARK    9  A    between atoms: _18  and  _21
REMARK   10  A    between atoms: _21  and  _22
REMARK   11  A    between atoms: _27  and  _29
REMARK   12  A    between atoms: _29  and  _30
REMARK   13  A    between atoms: _29  and  _32
REMARK   14  A    between atoms: _32  and  _33
REMARK   15  A    between atoms: _36  and  _38
REMARK   16  A    between atoms: _38  and  _39
REMARK   17  A    between atoms: _38  and  _41
REMARK   18  A    between atoms: _41  and  _42
REMARK   19  A    between atoms: _42  and  _43
REMARK   20  A    between atoms: _46  and  _48
REMARK   21  A    between atoms: _48  and  _49
REMARK   22  A    between atoms: _48  and  _51
REMARK   23  A    between atoms: _51  and  _52
REMARK   24  A    between atoms: _52  and  _53
REMARK   25  A    between atoms: _56  and  _58
REMARK   26  A    between atoms: _58  and  _59
REMARK   27  A    between atoms: _58  and  _61
REMARK   28  A    between atoms: _61  and  _62
REMARK   29  A    between atoms: _67  and  _68
REMARK   30  A    between atoms: _70  and  _72
REMARK   31  A    between atoms: _72  and  _73
REMARK   32  A    between atoms: _72  and  _75
REMARK   33  A    between atoms: _75  and  _76
REMARK   34  A    between atoms: _81  and  _83
REMARK   35  A    between atoms: _83  and  _84
REMARK   36  A    between atoms: _83  and  _86
REMARK   37  A    between atoms: _86  and  _87
REMARK   38  A    between atoms: _93  and  _95
REMARK   39  A    between atoms: _95  and  _96
REMARK   40  A    between atoms: _95  and  _98
REMARK   41  A    between atoms: _98  and  _99
REMARK   42  A    between atoms: _102  and  _104
REMARK   43  A    between atoms: _104  and  _105
REMARK   44  A    between atoms: _104  and  _107
REMARK   45  A    between atoms: _107  and  _108
REMARK   46  A    between atoms: _111  and  _113
REMARK   47  A    between atoms: _113  and  _114
REMARK   48  A    between atoms: _116  and  _118
REMARK   49  A    between atoms: _118  and  _119
REMARK   50  A    between atoms: _118  and  _121
REMARK   51  A    between atoms: _121  and  _122
REMARK   52  A    between atoms: _124  and  _126
REMARK   53  A    between atoms: _126  and  _127
REMARK   54  A    between atoms: _130  and  _132
REMARK   55  A    between atoms: _132  and  _133
REMARK   56  A    between atoms: _132  and  _135
REMARK   57  A    between atoms: _135  and  _136
REMARK   58  A    between atoms: _139  and  _141
REMARK   59  A    between atoms: _141  and  _142
REMARK   60  A    between atoms: _141  and  _144
REMARK   61  A    between atoms: _144  and  _145
REMARK   62  A    between atoms: _155  and  _157
REMARK   63  A    between atoms: _157  and  _158
REMARK   64  A    between atoms: _157  and  _160
REMARK   65  A    between atoms: _160  and  _161
REMARK   66  A    between atoms: _164  and  _166
REMARK   67  A    between atoms: _166  and  _167
REMARK   68  A    between atoms: _166  and  _169
REMARK   69  A    between atoms: _169  and  _170
REMARK   70  A    between atoms: _172  and  _174
REMARK   71  A    between atoms: _174  and  _175
REMARK   72  A    between atoms: _174  and  _177
REMARK   73  A    between atoms: _177  and  _178
REMARK   74  A    between atoms: _183  and  _184
REMARK   75  A    between atoms: _186  and  _188
REMARK   76  A    between atoms: _188  and  _189
REMARK   77  A    between atoms: _191  and  _193
REMARK   78  A    between atoms: _193  and  _194
REMARK   79  A    between atoms: _193  and  _196
REMARK   80  A    between atoms: _196  and  _197
REMARK   81  A    between atoms: _200  and  _202
REMARK   82  A    between atoms: _202  and  _203
REMARK   83  A    between atoms: _205  and  _207
REMARK   84  A    between atoms: _207  and  _208
REMARK   85  A    between atoms: _207  and  _210
REMARK   86  A    between atoms: _210  and  _211
REMARK   87  A    between atoms: _213  and  _215
REMARK   88  A    between atoms: _215  and  _216
REMARK   89  A    between atoms: _215  and  _218
REMARK   90  A    between atoms: _218  and  _219
REMARK   91  A    between atoms: _221  and  _223
REMARK   92  A    between atoms: _223  and  _224
REMARK   93  A    between atoms: _223  and  _226
REMARK   94  A    between atoms: _226  and  _227
REMARK   95  A    between atoms: _227  and  _228
REMARK   96  A    between atoms: _233  and  _235
REMARK   97  A    between atoms: _235  and  _236
REMARK   98  A    between atoms: _235  and  _238
REMARK   99  A    between atoms: _238  and  _239
REMARK  100  A    between atoms: _245  and  _247
REMARK  101  A    between atoms: _247  and  _248
REMARK  102  A    between atoms: _247  and  _250
REMARK  103  A    between atoms: _250  and  _251
REMARK  104  A    between atoms: _254  and  _256
REMARK  105  A    between atoms: _256  and  _257
REMARK  106  A    between atoms: _256  and  _259
REMARK  107  A    between atoms: _259  and  _260
REMARK  108  A    between atoms: _265  and  _267
REMARK  109  A    between atoms: _267  and  _268
REMARK  110  A    between atoms: _267  and  _270
REMARK  111  A    between atoms: _270  and  _271
REMARK  112  A    between atoms: _276  and  _278
REMARK  113  A    between atoms: _278  and  _279
REMARK  114  A    between atoms: _281  and  _283
REMARK  115  A    between atoms: _283  and  _284
REMARK  116  A    between atoms: _283  and  _286
REMARK  117  A    between atoms: _286  and  _287
REMARK  118  A    between atoms: _290  and  _292
REMARK  119  A    between atoms: _292  and  _293
REMARK  120  A    between atoms: _292  and  _295
REMARK  121  A    between atoms: _295  and  _296
REMARK  122  A    between atoms: _299  and  _301
REMARK  123  A    between atoms: _301  and  _302
REMARK  124  A    between atoms: _304  and  _306
REMARK  125  A    between atoms: _306  and  _307
REMARK  126  A    between atoms: _306  and  _309
REMARK  127  A    between atoms: _309  and  _310
REMARK  128  A    between atoms: _313  and  _315
REMARK  129  A    between atoms: _315  and  _316
REMARK  130  A    between atoms: _319  and  _321
REMARK  131  A    between atoms: _321  and  _322
REMARK  132  A    between atoms: _321  and  _324
REMARK  133  A    between atoms: _324  and  _325
REMARK  134  A    between atoms: _328  and  _330
REMARK  135  A    between atoms: _330  and  _331
REMARK  136  A    between atoms: _330  and  _333
REMARK  137  A    between atoms: _333  and  _334
REMARK  138  A    between atoms: _337  and  _339
REMARK  139  A    between atoms: _339  and  _340
REMARK  140  A    between atoms: _339  and  _342
REMARK  141  A    between atoms: _342  and  _343
REMARK  142  A    between atoms: _349  and  _351
REMARK  143  A    between atoms: _351  and  _352
REMARK  144  A    between atoms: _351  and  _354
REMARK  145  A    between atoms: _354  and  _355
REMARK  146  A    between atoms: _365  and  _367
REMARK  147  A    between atoms: _367  and  _368
REMARK  148  A    between atoms: _367  and  _370
REMARK  149  A    between atoms: _370  and  _371
REMARK  150  A    between atoms: _374  and  _376
REMARK  151  A    between atoms: _376  and  _377
REMARK  152  A    between atoms: _380  and  _382
REMARK  153  A    between atoms: _382  and  _383
REMARK  154  A    between atoms: _382  and  _385
REMARK  155  A    between atoms: _385  and  _386
REMARK  156  A    between atoms: _389  and  _391
REMARK  157  A    between atoms: _391  and  _392
REMARK  158  A    between atoms: _391  and  _394
REMARK  159  A    between atoms: _394  and  _395
REMARK  160  A    between atoms: _398  and  _400
REMARK  161  A    between atoms: _400  and  _401
REMARK  162  A    between atoms: _403  and  _405
REMARK  163  A    between atoms: _405  and  _406
REMARK  164  A    between atoms: _405  and  _408
REMARK  165  A    between atoms: _408  and  _409
REMARK  166  A    between atoms: _412  and  _414
REMARK  167  A    between atoms: _414  and  _415
REMARK  168  A    between atoms: _414  and  _417
REMARK  169  A    between atoms: _417  and  _418
REMARK  170  A    between atoms: _421  and  _423
REMARK  171  A    between atoms: _423  and  _424
REMARK  172  A    between atoms: _423  and  _426
REMARK  173  A    between atoms: _426  and  _427
REMARK  174  A    between atoms: _430  and  _432
REMARK  175  A    between atoms: _432  and  _433
REMARK  176  A    between atoms: _432  and  _435
REMARK  177  A    between atoms: _435  and  _436
REMARK  178  A    between atoms: _439  and  _441
REMARK  179  A    between atoms: _441  and  _442
REMARK  180  A    between atoms: _441  and  _444
REMARK  181  A    between atoms: _444  and  _445
REMARK  182  A    between atoms: _448  and  _450
REMARK  183  A    between atoms: _450  and  _451
REMARK  184  A    between atoms: _454  and  _456
REMARK  185  A    between atoms: _456  and  _457
REMARK  186  A    between atoms: _459  and  _461
REMARK  187  A    between atoms: _461  and  _462
REMARK  188  A    between atoms: _464  and  _466
REMARK  189  A    between atoms: _466  and  _467
REMARK  190  A    between atoms: _466  and  _469
REMARK  191  A    between atoms: _469  and  _470
REMARK  192  A    between atoms: _475  and  _476
REMARK  193  A    between atoms: _479  and  _480
REMARK  194  A    between atoms: _485  and  _487
REMARK  195  A    between atoms: _487  and  _488
REMARK  196  A    between atoms: _487  and  _490
REMARK  197  A    between atoms: _490  and  _491
REMARK  198  A    between atoms: _493  and  _495
REMARK  199  A    between atoms: _495  and  _496
REMARK  200  A    between atoms: _495  and  _498
REMARK  201  A    between atoms: _498  and  _499
REMARK  202  A    between atoms: _502  and  _504
REMARK  203  A    between atoms: _504  and  _505
REMARK  204  A    between atoms: _507  and  _509
REMARK  205  A    between atoms: _509  and  _510
REMARK  206  A    between atoms: _509  and  _512
REMARK  207  A    between atoms: _512  and  _513
REMARK  208  A    between atoms: _513  and  _514
REMARK  209  A    between atoms: _519  and  _521
REMARK  210  A    between atoms: _521  and  _522
REMARK  211  A    between atoms: _521  and  _524
REMARK  212  A    between atoms: _524  and  _525
REMARK  213  A    between atoms: _527  and  _529
REMARK  214  A    between atoms: _529  and  _530
REMARK  215  A    between atoms: _529  and  _532
REMARK  216  A    between atoms: _532  and  _533
REMARK  217  A    between atoms: _538  and  _540
REMARK  218  A    between atoms: _540  and  _541
REMARK  219  A    between atoms: _540  and  _543
REMARK  220  A    between atoms: _543  and  _544
REMARK  221  A    between atoms: _546  and  _548
REMARK  222  A    between atoms: _548  and  _549
REMARK  223  A    between atoms: _548  and  _551
REMARK  224  A    between atoms: _551  and  _552
REMARK  225  A    between atoms: _555  and  _557
REMARK  226  A    between atoms: _557  and  _558
REMARK  227  A    between atoms: _557  and  _560
REMARK  228  A    between atoms: _560  and  _561
REMARK  229  A    between atoms: _567  and  _569
REMARK  230  A    between atoms: _569  and  _570
REMARK  231  A    between atoms: _569  and  _572
REMARK  232  A    between atoms: _572  and  _573
REMARK  233  A    between atoms: _575  and  _577
REMARK  234  A    between atoms: _577  and  _578
REMARK  235  A    between atoms: _577  and  _580
REMARK  236  A    between atoms: _580  and  _581
REMARK  237  A    between atoms: _584  and  _586
REMARK  238  A    between atoms: _586  and  _587
REMARK  239  A    between atoms: _586  and  _589
REMARK  240  A    between atoms: _589  and  _590
REMARK  241  A    between atoms: _596  and  _598
REMARK  242  A    between atoms: _598  and  _599
REMARK  243  A    between atoms: _601  and  _603
REMARK  244  A    between atoms: _603  and  _604
REMARK  245  A    between atoms: _603  and  _606
REMARK  246  A    between atoms: _606  and  _607
REMARK                            x       y       z     vdW  Elec       q    Type
REMARK                         _______ _______ _______ _____ _____    ______ ____
ROOT
ATOM      1  O   HOH     1      22.594   6.587  30.085  0.00  0.00    +0.000 OA
ENDROOT
TORSDOF 0
REMARK  Name = ../refined-set-2016/1ppl/1ppl_pocket.pdb
REMARK  246 active torsions:
REMARK  status: ('A' for Active; 'I' for Inactive)
REMARK    1  A    between atoms: _1  and  _3
REMARK    2  A    between atoms: _3  and  _4
REMARK    3  A    between atoms: _3  and  _6
REMARK    4  A    between atoms: _6  and  _7
REMARK    5  A    between atoms: _10  and  _12
REMARK    6  A    between atoms: _12  and  _13
REMARK    7  A    between atoms: _16  and  _18
REMARK    8  A    between atoms: _18  and  _19
REMARK    9  A    between atoms: _18  and  _21
REMARK   10  A    between atoms: _21  and  _22
REMARK   11  A    between atoms: _27  and  _29
REMARK   12  A    between atoms: _29  and  _30
REMARK   13  A    between atoms: _29  and  _32
REMARK   14  A    between atoms: _32  and  _33
REMARK   15  A    between atoms: _36  and  _38
REMARK   16  A    between atoms: _38  and  _39
REMARK   17  A    between atoms: _38  and  _41
REMARK   18  A    between atoms: _41  and  _42
REMARK   19  A    between atoms: _42  and  _43
REMARK   20  A    between atoms: _46  and  _48
REMARK   21  A    between atoms: _48  and  _49
REMARK   22  A    between atoms: _48  and  _51
REMARK   23  A    between atoms: _51  and  _52
REMARK   24  A    between atoms: _52  and  _53
REMARK   25  A    between atoms: _56  and  _58
REMARK   26  A    between atoms: _58  and  _59
REMARK   27  A    between atoms: _58  and  _61
REMARK   28  A    between atoms: _61  and  _62
REMARK   29  A    between atoms: _67  and  _68
REMARK   30  A    between atoms: _70  and  _72
REMARK   31  A    between atoms: _72  and  _73
REMARK   32  A    between atoms: _72  and  _75
REMARK   33  A    between atoms: _75  and  _76
REMARK   34  A    between atoms: _81  and  _83
REMARK   35  A    between atoms: _83  and  _84
REMARK   36  A    between atoms: _83  and  _86
REMARK   37  A    between atoms: _86  and  _87
REMARK   38  A    between atoms: _93  and  _95
REMARK   39  A    between atoms: _95  and  _96
REMARK   40  A    between atoms: _95  and  _98
REMARK   41  A    between atoms: _98  and  _99
REMARK   42  A    between atoms: _102  and  _104
REMARK   43  A    between atoms: _104  and  _105
REMARK   44  A    between atoms: _104  and  _107
REMARK   45  A    between atoms: _107  and  _108
REMARK   46  A    between atoms: _111  and  _113
REMARK   47  A    between atoms: _113  and  _114
REMARK   48  A    between atoms: _116  and  _118
REMARK   49  A    between atoms: _118  and  _119
REMARK   50  A    between atoms: _118  and  _121
REMARK   51  A    between atoms: _121  and  _122
REMARK   52  A    between atoms: _124  and  _126
REMARK   53  A    between atoms: _126  and  _127
REMARK   54  A    between atoms: _130  and  _132
REMARK   55  A    between atoms: _132  and  _133
REMARK   56  A    between atoms: _132  and  _135
REMARK   57  A    between atoms: _135  and  _136
REMARK   58  A    between atoms: _139  and  _141
REMARK   59  A    between atoms: _141  and  _142
REMARK   60  A    between atoms: _141  and  _144
REMARK   61  A    between atoms: _144  and  _145
REMARK   62  A    between atoms: _155  and  _157
REMARK   63  A    between atoms: _157  and  _158
REMARK   64  A    between atoms: _157  and  _160
REMARK   65  A    between atoms: _160  and  _161
REMARK   66  A    between atoms: _164  and  _166
REMARK   67  A    between atoms: _166  and  _167
REMARK   68  A    between atoms: _166  and  _169
REMARK   69  A    between atoms: _169  and  _170
REMARK   70  A    between atoms: _172  and  _174
REMARK   71  A    between atoms: _174  and  _175
REMARK   72  A    between atoms: _174  and  _177
REMARK   73  A    between atoms: _177  and  _178
REMARK   74  A    between atoms: _183  and  _184
REMARK   75  A    between atoms: _186  and  _188
REMARK   76  A    between atoms: _188  and  _189
REMARK   77  A    between atoms: _191  and  _193
REMARK   78  A    between atoms: _193  and  _194
REMARK   79  A    between atoms: _193  and  _196
REMARK   80  A    between atoms: _196  and  _197
REMARK   81  A    between atoms: _200  and  _202
REMARK   82  A    between atoms: _202  and  _203
REMARK   83  A    between atoms: _205  and  _207
REMARK   84  A    between atoms: _207  and  _208
REMARK   85  A    between atoms: _207  and  _210
REMARK   86  A    between atoms: _210  and  _211
REMARK   87  A    between atoms: _213  and  _215
REMARK   88  A    between atoms: _215  and  _216
REMARK   89  A    between atoms: _215  and  _218
REMARK   90  A    between atoms: _218  and  _219
REMARK   91  A    between atoms: _221  and  _223
REMARK   92  A    between atoms: _223  and  _224
REMARK   93  A    between atoms: _223  and  _226
REMARK   94  A    between atoms: _226  and  _227
REMARK   95  A    between atoms: _227  and  _228
REMARK   96  A    between atoms: _233  and  _235
REMARK   97  A    between atoms: _235  and  _236
REMARK   98  A    between atoms: _235  and  _238
REMARK   99  A    between atoms: _238  and  _239
REMARK  100  A    between atoms: _245  and  _247
REMARK  101  A    between atoms: _247  and  _248
REMARK  102  A    between atoms: _247  and  _250
REMARK  103  A    between atoms: _250  and  _251
REMARK  104  A    between atoms: _254  and  _256
REMARK  105  A    between atoms: _256  and  _257
REMARK  106  A    between atoms: _256  and  _259
REMARK  107  A    between atoms: _259  and  _260
REMARK  108  A    between atoms: _265  and  _267
REMARK  109  A    between atoms: _267  and  _268
REMARK  110  A    between atoms: _267  and  _270
REMARK  111  A    between atoms: _270  and  _271
REMARK  112  A    between atoms: _276  and  _278
REMARK  113  A    between atoms: _278  and  _279
REMARK  114  A    between atoms: _281  and  _283
REMARK  115  A    between atoms: _283  and  _284
REMARK  116  A    between atoms: _283  and  _286
REMARK  117  A    between atoms: _286  and  _287
REMARK  118  A    between atoms: _290  and  _292
REMARK  119  A    between atoms: _292  and  _293
REMARK  120  A    between atoms: _292  and  _295
REMARK  121  A    between atoms: _295  and  _296
REMARK  122  A    between atoms: _299  and  _301
REMARK  123  A    between atoms: _301  and  _302
REMARK  124  A    between atoms: _304  and  _306
REMARK  125  A    between atoms: _306  and  _307
REMARK  126  A    between atoms: _306  and  _309
REMARK  127  A    between atoms: _309  and  _310
REMARK  128  A    between atoms: _313  and  _315
REMARK  129  A    between atoms: _315  and  _316
REMARK  130  A    between atoms: _319  and  _321
REMARK  131  A    between atoms: _321  and  _322
REMARK  132  A    between atoms: _321  and  _324
REMARK  133  A    between atoms: _324  and  _325
REMARK  134  A    between atoms: _328  and  _330
REMARK  135  A    between atoms: _330  and  _331
REMARK  136  A    between atoms: _330  and  _333
REMARK  137  A    between atoms: _333  and  _334
REMARK  138  A    between atoms: _337  and  _339
REMARK  139  A    between atoms: _339  and  _340
REMARK  140  A    between atoms: _339  and  _342
REMARK  141  A    between atoms: _342  and  _343
REMARK  142  A    between atoms: _349  and  _351
REMARK  143  A    between atoms: _351  and  _352
REMARK  144  A    between atoms: _351  and  _354
REMARK  145  A    between atoms: _354  and  _355
REMARK  146  A    between atoms: _365  and  _367
REMARK  147  A    between atoms: _367  and  _368
REMARK  148  A    between atoms: _367  and  _370
REMARK  149  A    between atoms: _370  and  _371
REMARK  150  A    between atoms: _374  and  _376
REMARK  151  A    between atoms: _376  and  _377
REMARK  152  A    between atoms: _380  and  _382
REMARK  153  A    between atoms: _382  and  _383
REMARK  154  A    between atoms: _382  and  _385
REMARK  155  A    between atoms: _385  and  _386
REMARK  156  A    between atoms: _389  and  _391
REMARK  157  A    between atoms: _391  and  _392
REMARK  158  A    between atoms: _391  and  _394
REMARK  159  A    between atoms: _394  and  _395
REMARK  160  A    between atoms: _398  and  _400
REMARK  161  A    between atoms: _400  and  _401
REMARK  162  A    between atoms: _403  and  _405
REMARK  163  A    between atoms: _405  and  _406
REMARK  164  A    between atoms: _405  and  _408
REMARK  165  A    between atoms: _408  and  _409
REMARK  166  A    between atoms: _412  and  _414
REMARK  167  A    between atoms: _414  and  _415
REMARK  168  A    between atoms: _414  and  _417
REMARK  169  A    between atoms: _417  and  _418
REMARK  170  A    between atoms: _421  and  _423
REMARK  171  A    between atoms: _423  and  _424
REMARK  172  A    between atoms: _423  and  _426
REMARK  173  A    between atoms: _426  and  _427
REMARK  174  A    between atoms: _430  and  _432
REMARK  175  A    between atoms: _432  and  _433
REMARK  176  A    between atoms: _432  and  _435
REMARK  177  A    between atoms: _435  and  _436
REMARK  178  A    between atoms: _439  and  _441
REMARK  179  A    between atoms: _441  and  _442
REMARK  180  A    between atoms: _441  and  _444
REMARK  181  A    between atoms: _444  and  _445
REMARK  182  A    between atoms: _448  and  _450
REMARK  183  A    between atoms: _450  and  _451
REMARK  184  A    between atoms: _454  and  _456
REMARK  185  A    between atoms: _456  and  _457
REMARK  186  A    between atoms: _459  and  _461
REMARK  187  A    between atoms: _461  and  _462
REMARK  188  A    between atoms: _464  and  _466
REMARK  189  A    between atoms: _466  and  _467
REMARK  190  A    between atoms: _466  and  _469
REMARK  191  A    between atoms: _469  and  _470
REMARK  192  A    between atoms: _475  and  _476
REMARK  193  A    between atoms: _479  and  _480
REMARK  194  A    between atoms: _485  and  _487
REMARK  195  A    between atoms: _487  and  _488
REMARK  196  A    between atoms: _487  and  _490
REMARK  197  A    between atoms: _490  and  _491
REMARK  198  A    between atoms: _493  and  _495
REMARK  199  A    between atoms: _495  and  _496
REMARK  200  A    between atoms: _495  and  _498
REMARK  201  A    between atoms: _498  and  _499
REMARK  202  A    between atoms: _502  and  _504
REMARK  203  A    between atoms: _504  and  _505
REMARK  204  A    between atoms: _507  and  _509
REMARK  205  A    between atoms: _509  and  _510
REMARK  206  A    between atoms: _509  and  _512
REMARK  207  A    between atoms: _512  and  _513
REMARK  208  A    between atoms: _513  and  _514
REMARK  209  A    between atoms: _519  and  _521
REMARK  210  A    between atoms: _521  and  _522
REMARK  211  A    between atoms: _521  and  _524
REMARK  212  A    between atoms: _524  and  _525
REMARK  213  A    between atoms: _527  and  _529
REMARK  214  A    between atoms: _529  and  _530
REMARK  215  A    between atoms: _529  and  _532
REMARK  216  A    between atoms: _532  and  _533
REMARK  217  A    between atoms: _538  and  _540
REMARK  218  A    between atoms: _540  and  _541
REMARK  219  A    between atoms: _540  and  _543
REMARK  220  A    between atoms: _543  and  _544
REMARK  221  A    between atoms: _546  and  _548
REMARK  222  A    between atoms: _548  and  _549
REMARK  223  A    between atoms: _548  and  _551
REMARK  224  A    between atoms: _551  and  _552
REMARK  225  A    between atoms: _555  and  _557
REMARK  226  A    between atoms: _557  and  _558
REMARK  227  A    between atoms: _557  and  _560
REMARK  228  A    between atoms: _560  and  _561
REMARK  229  A    between atoms: _567  and  _569
REMARK  230  A    between atoms: _569  and  _570
REMARK  231  A    between atoms: _569  and  _572
REMARK  232  A    between atoms: _572  and  _573
REMARK  233  A    between atoms: _575  and  _577
REMARK  234  A    between atoms: _577  and  _578
REMARK  235  A    between atoms: _577  and  _580
REMARK  236  A    between atoms: _580  and  _581
REMARK  237  A    between atoms: _584  and  _586
REMARK  238  A    between atoms: _586  and  _587
REMARK  239  A    between atoms: _586  and  _589
REMARK  240  A    between atoms: _589  and  _590
REMARK  241  A    between atoms: _596  and  _598
REMARK  242  A    between atoms: _598  and  _599
REMARK  243  A    between atoms: _601  and  _603
REMARK  244  A    between atoms: _603  and  _604
REMARK  245  A    between atoms: _603  and  _606
REMARK  246  A    between atoms: _606  and  _607
REMARK                            x       y       z     vdW  Elec       q    Type
REMARK                         _______ _______ _______ _____ _____    ______ ____
ROOT
ATOM      1  O   HOH     1      14.702   6.986  25.119  0.00  0.00    +0.000 OA
ENDROOT
TORSDOF 0
REMARK  Name = ../refined-set-2016/1ppl/1ppl_pocket.pdb
REMARK  246 active torsions:
REMARK  status: ('A' for Active; 'I' for Inactive)
REMARK    1  A    between atoms: _1  and  _3
REMARK    2  A    between atoms: _3  and  _4
REMARK    3  A    between atoms: _3  and  _6
REMARK    4  A    between atoms: _6  and  _7
REMARK    5  A    between atoms: _10  and  _12
REMARK    6  A    between atoms: _12  and  _13
REMARK    7  A    between atoms: _16  and  _18
REMARK    8  A    between atoms: _18  and  _19
REMARK    9  A    between atoms: _18  and  _21
REMARK   10  A    between atoms: _21  and  _22
REMARK   11  A    between atoms: _27  and  _29
REMARK   12  A    between atoms: _29  and  _30
REMARK   13  A    between atoms: _29  and  _32
REMARK   14  A    between atoms: _32  and  _33
REMARK   15  A    between atoms: _36  and  _38
REMARK   16  A    between atoms: _38  and  _39
REMARK   17  A    between atoms: _38  and  _41
REMARK   18  A    between atoms: _41  and  _42
REMARK   19  A    between atoms: _42  and  _43
REMARK   20  A    between atoms: _46  and  _48
REMARK   21  A    between atoms: _48  and  _49
REMARK   22  A    between atoms: _48  and  _51
REMARK   23  A    between atoms: _51  and  _52
REMARK   24  A    between atoms: _52  and  _53
REMARK   25  A    between atoms: _56  and  _58
REMARK   26  A    between atoms: _58  and  _59
REMARK   27  A    between atoms: _58  and  _61
REMARK   28  A    between atoms: _61  and  _62
REMARK   29  A    between atoms: _67  and  _68
REMARK   30  A    between atoms: _70  and  _72
REMARK   31  A    between atoms: _72  and  _73
REMARK   32  A    between atoms: _72  and  _75
REMARK   33  A    between atoms: _75  and  _76
REMARK   34  A    between atoms: _81  and  _83
REMARK   35  A    between atoms: _83  and  _84
REMARK   36  A    between atoms: _83  and  _86
REMARK   37  A    between atoms: _86  and  _87
REMARK   38  A    between atoms: _93  and  _95
REMARK   39  A    between atoms: _95  and  _96
REMARK   40  A    between atoms: _95  and  _98
REMARK   41  A    between atoms: _98  and  _99
REMARK   42  A    between atoms: _102  and  _104
REMARK   43  A    between atoms: _104  and  _105
REMARK   44  A    between atoms: _104  and  _107
REMARK   45  A    between atoms: _107  and  _108
REMARK   46  A    between atoms: _111  and  _113
REMARK   47  A    between atoms: _113  and  _114
REMARK   48  A    between atoms: _116  and  _118
REMARK   49  A    between atoms: _118  and  _119
REMARK   50  A    between atoms: _118  and  _121
REMARK   51  A    between atoms: _121  and  _122
REMARK   52  A    between atoms: _124  and  _126
REMARK   53  A    between atoms: _126  and  _127
REMARK   54  A    between atoms: _130  and  _132
REMARK   55  A    between atoms: _132  and  _133
REMARK   56  A    between atoms: _132  and  _135
REMARK   57  A    between atoms: _135  and  _136
REMARK   58  A    between atoms: _139  and  _141
REMARK   59  A    between atoms: _141  and  _142
REMARK   60  A    between atoms: _141  and  _144
REMARK   61  A    between atoms: _144  and  _145
REMARK   62  A    between atoms: _155  and  _157
REMARK   63  A    between atoms: _157  and  _158
REMARK   64  A    between atoms: _157  and  _160
REMARK   65  A    between atoms: _160  and  _161
REMARK   66  A    between atoms: _164  and  _166
REMARK   67  A    between atoms: _166  and  _167
REMARK   68  A    between atoms: _166  and  _169
REMARK   69  A    between atoms: _169  and  _170
REMARK   70  A    between atoms: _172  and  _174
REMARK   71  A    between atoms: _174  and  _175
REMARK   72  A    between atoms: _174  and  _177
REMARK   73  A    between atoms: _177  and  _178
REMARK   74  A    between atoms: _183  and  _184
REMARK   75  A    between atoms: _186  and  _188
REMARK   76  A    between atoms: _188  and  _189
REMARK   77  A    between atoms: _191  and  _193
REMARK   78  A    between atoms: _193  and  _194
REMARK   79  A    between atoms: _193  and  _196
REMARK   80  A    between atoms: _196  and  _197
REMARK   81  A    between atoms: _200  and  _202
REMARK   82  A    between atoms: _202  and  _203
REMARK   83  A    between atoms: _205  and  _207
REMARK   84  A    between atoms: _207  and  _208
REMARK   85  A    between atoms: _207  and  _210
REMARK   86  A    between atoms: _210  and  _211
REMARK   87  A    between atoms: _213  and  _215
REMARK   88  A    between atoms: _215  and  _216
REMARK   89  A    between atoms: _215  and  _218
REMARK   90  A    between atoms: _218  and  _219
REMARK   91  A    between atoms: _221  and  _223
REMARK   92  A    between atoms: _223  and  _224
REMARK   93  A    between atoms: _223  and  _226
REMARK   94  A    between atoms: _226  and  _227
REMARK   95  A    between atoms: _227  and  _228
REMARK   96  A    between atoms: _233  and  _235
REMARK   97  A    between atoms: _235  and  _236
REMARK   98  A    between atoms: _235  and  _238
REMARK   99  A    between atoms: _238  and  _239
REMARK  100  A    between atoms: _245  and  _247
REMARK  101  A    between atoms: _247  and  _248
REMARK  102  A    between atoms: _247  and  _250
REMARK  103  A    between atoms: _250  and  _251
REMARK  104  A    between atoms: _254  and  _256
REMARK  105  A    between atoms: _256  and  _257
REMARK  106  A    between atoms: _256  and  _259
REMARK  107  A    between atoms: _259  and  _260
REMARK  108  A    between atoms: _265  and  _267
REMARK  109  A    between atoms: _267  and  _268
REMARK  110  A    between atoms: _267  and  _270
REMARK  111  A    between atoms: _270  and  _271
REMARK  112  A    between atoms: _276  and  _278
REMARK  113  A    between atoms: _278  and  _279
REMARK  114  A    between atoms: _281  and  _283
REMARK  115  A    between atoms: _283  and  _284
REMARK  116  A    between atoms: _283  and  _286
REMARK  117  A    between atoms: _286  and  _287
REMARK  118  A    between atoms: _290  and  _292
REMARK  119  A    between atoms: _292  and  _293
REMARK  120  A    between atoms: _292  and  _295
REMARK  121  A    between atoms: _295  and  _296
REMARK  122  A    between atoms: _299  and  _301
REMARK  123  A    between atoms: _301  and  _302
REMARK  124  A    between atoms: _304  and  _306
REMARK  125  A    between atoms: _306  and  _307
REMARK  126  A    between atoms: _306  and  _309
REMARK  127  A    between atoms: _309  and  _310
REMARK  128  A    between atoms: _313  and  _315
REMARK  129  A    between atoms: _315  and  _316
REMARK  130  A    between atoms: _319  and  _321
REMARK  131  A    between atoms: _321  and  _322
REMARK  132  A    between atoms: _321  and  _324
REMARK  133  A    between atoms: _324  and  _325
REMARK  134  A    between atoms: _328  and  _330
REMARK  135  A    between atoms: _330  and  _331
REMARK  136  A    between atoms: _330  and  _333
REMARK  137  A    between atoms: _333  and  _334
REMARK  138  A    between atoms: _337  and  _339
REMARK  139  A    between atoms: _339  and  _340
REMARK  140  A    between atoms: _339  and  _342
REMARK  141  A    between atoms: _342  and  _343
REMARK  142  A    between atoms: _349  and  _351
REMARK  143  A    between atoms: _351  and  _352
REMARK  144  A    between atoms: _351  and  _354
REMARK  145  A    between atoms: _354  and  _355
REMARK  146  A    between atoms: _365  and  _367
REMARK  147  A    between atoms: _367  and  _368
REMARK  148  A    between atoms: _367  and  _370
REMARK  149  A    between atoms: _370  and  _371
REMARK  150  A    between atoms: _374  and  _376
REMARK  151  A    between atoms: _376  and  _377
REMARK  152  A    between atoms: _380  and  _382
REMARK  153  A    between atoms: _382  and  _383
REMARK  154  A    between atoms: _382  and  _385
REMARK  155  A    between atoms: _385  and  _386
REMARK  156  A    between atoms: _389  and  _391
REMARK  157  A    between atoms: _391  and  _392
REMARK  158  A    between atoms: _391  and  _394
REMARK  159  A    between atoms: _394  and  _395
REMARK  160  A    between atoms: _398  and  _400
REMARK  161  A    between atoms: _400  and  _401
REMARK  162  A    between atoms: _403  and  _405
REMARK  163  A    between atoms: _405  and  _406
REMARK  164  A    between atoms: _405  and  _408
REMARK  165  A    between atoms: _408  and  _409
REMARK  166  A    between atoms: _412  and  _414
REMARK  167  A    between atoms: _414  and  _415
REMARK  168  A    between atoms: _414  and  _417
REMARK  169  A    between atoms: _417  and  _418
REMARK  170  A    between atoms: _421  and  _423
REMARK  171  A    between atoms: _423  and  _424
REMARK  172  A    between atoms: _423  and  _426
REMARK  173  A    between atoms: _426  and  _427
REMARK  174  A    between atoms: _430  and  _432
REMARK  175  A    between atoms: _432  and  _433
REMARK  176  A    between atoms: _432  and  _435
REMARK  177  A    between atoms: _435  and  _436
REMARK  178  A    between atoms: _439  and  _441
REMARK  179  A    between atoms: _441  and  _442
REMARK  180  A    between atoms: _441  and  _444
REMARK  181  A    between atoms: _444  and  _445
REMARK  182  A    between atoms: _448  and  _450
REMARK  183  A    between atoms: _450  and  _451
REMARK  184  A    between atoms: _454  and  _456
REMARK  185  A    between atoms: _456  and  _457
REMARK  186  A    between atoms: _459  and  _461
REMARK  187  A    between atoms: _461  and  _462
REMARK  188  A    between atoms: _464  and  _466
REMARK  189  A    between atoms: _466  and  _467
REMARK  190  A    between atoms: _466  and  _469
REMARK  191  A    between atoms: _469  and  _470
REMARK  192  A    between atoms: _475  and  _476
REMARK  193  A    between atoms: _479  and  _480
REMARK  194  A    between atoms: _485  and  _487
REMARK  195  A    between atoms: _487  and  _488
REMARK  196  A    between atoms: _487  and  _490
REMARK  197  A    between atoms: _490  and  _491
REMARK  198  A    between atoms: _493  and  _495
REMARK  199  A    between atoms: _495  and  _496
REMARK  200  A    between atoms: _495  and  _498
REMARK  201  A    between atoms: _498  and  _499
REMARK  202  A    between atoms: _502  and  _504
REMARK  203  A    between atoms: _504  and  _505
REMARK  204  A    between atoms: _507  and  _509
REMARK  205  A    between atoms: _509  and  _510
REMARK  206  A    between atoms: _509  and  _512
REMARK  207  A    between atoms: _512  and  _513
REMARK  208  A    between atoms: _513  and  _514
REMARK  209  A    between atoms: _519  and  _521
REMARK  210  A    between atoms: _521  and  _522
REMARK  211  A    between atoms: _521  and  _524
REMARK  212  A    between atoms: _524  and  _525
REMARK  213  A    between atoms: _527  and  _529
REMARK  214  A    between atoms: _529  and  _530
REMARK  215  A    between atoms: _529  and  _532
REMARK  216  A    between atoms: _532  and  _533
REMARK  217  A    between atoms: _538  and  _540
REMARK  218  A    between atoms: _540  and  _541
REMARK  219  A    between atoms: _540  and  _543
REMARK  220  A    between atoms: _543  and  _544
REMARK  221  A    between atoms: _546  and  _548
REMARK  222  A    between atoms: _548  and  _549
REMARK  223  A    between atoms: _548  and  _551
REMARK  224  A    between atoms: _551  and  _552
REMARK  225  A    between atoms: _555  and  _557
REMARK  226  A    between atoms: _557  and  _558
REMARK  227  A    between atoms: _557  and  _560
REMARK  228  A    between atoms: _560  and  _561
REMARK  229  A    between atoms: _567  and  _569
REMARK  230  A    between atoms: _569  and  _570
REMARK  231  A    between atoms: _569  and  _572
REMARK  232  A    between atoms: _572  and  _573
REMARK  233  A    between atoms: _575  and  _577
REMARK  234  A    between atoms: _577  and  _578
REMARK  235  A    between atoms: _577  and  _580
REMARK  236  A    between atoms: _580  and  _581
REMARK  237  A    between atoms: _584  and  _586
REMARK  238  A    between atoms: _586  and  _587
REMARK  239  A    between atoms: _586  and  _589
REMARK  240  A    between atoms: _589  and  _590
REMARK  241  A    between atoms: _596  and  _598
REMARK  242  A    between atoms: _598  and  _599
REMARK  243  A    between atoms: _601  and  _603
REMARK  244  A    between atoms: _603  and  _604
REMARK  245  A    between atoms: _603  and  _606
REMARK  246  A    between atoms: _606  and  _607
REMARK                            x       y       z     vdW  Elec       q    Type
REMARK                         _______ _______ _______ _____ _____    ______ ____
ROOT
ATOM      1  O   HOH     1      10.854   0.191  17.506  0.00  0.00    +0.000 OA
ENDROOT
TORSDOF 0
REMARK  Name = ../refined-set-2016/1ppl/1ppl_pocket.pdb
REMARK  246 active torsions:
REMARK  status: ('A' for Active; 'I' for Inactive)
REMARK    1  A    between atoms: _1  and  _3
REMARK    2  A    between atoms: _3  and  _4
REMARK    3  A    between atoms: _3  and  _6
REMARK    4  A    between atoms: _6  and  _7
REMARK    5  A    between atoms: _10  and  _12
REMARK    6  A    between atoms: _12  and  _13
REMARK    7  A    between atoms: _16  and  _18
REMARK    8  A    between atoms: _18  and  _19
REMARK    9  A    between atoms: _18  and  _21
REMARK   10  A    between atoms: _21  and  _22
REMARK   11  A    between atoms: _27  and  _29
REMARK   12  A    between atoms: _29  and  _30
REMARK   13  A    between atoms: _29  and  _32
REMARK   14  A    between atoms: _32  and  _33
REMARK   15  A    between atoms: _36  and  _38
REMARK   16  A    between atoms: _38  and  _39
REMARK   17  A    between atoms: _38  and  _41
REMARK   18  A    between atoms: _41  and  _42
REMARK   19  A    between atoms: _42  and  _43
REMARK   20  A    between atoms: _46  and  _48
REMARK   21  A    between atoms: _48  and  _49
REMARK   22  A    between atoms: _48  and  _51
REMARK   23  A    between atoms: _51  and  _52
REMARK   24  A    between atoms: _52  and  _53
REMARK   25  A    between atoms: _56  and  _58
REMARK   26  A    between atoms: _58  and  _59
REMARK   27  A    between atoms: _58  and  _61
REMARK   28  A    between atoms: _61  and  _62
REMARK   29  A    between atoms: _67  and  _68
REMARK   30  A    between atoms: _70  and  _72
REMARK   31  A    between atoms: _72  and  _73
REMARK   32  A    between atoms: _72  and  _75
REMARK   33  A    between atoms: _75  and  _76
REMARK   34  A    between atoms: _81  and  _83
REMARK   35  A    between atoms: _83  and  _84
REMARK   36  A    between atoms: _83  and  _86
REMARK   37  A    between atoms: _86  and  _87
REMARK   38  A    between atoms: _93  and  _95
REMARK   39  A    between atoms: _95  and  _96
REMARK   40  A    between atoms: _95  and  _98
REMARK   41  A    between atoms: _98  and  _99
REMARK   42  A    between atoms: _102  and  _104
REMARK   43  A    between atoms: _104  and  _105
REMARK   44  A    between atoms: _104  and  _107
REMARK   45  A    between atoms: _107  and  _108
REMARK   46  A    between atoms: _111  and  _113
REMARK   47  A    between atoms: _113  and  _114
REMARK   48  A    between atoms: _116  and  _118
REMARK   49  A    between atoms: _118  and  _119
REMARK   50  A    between atoms: _118  and  _121
REMARK   51  A    between atoms: _121  and  _122
REMARK   52  A    between atoms: _124  and  _126
REMARK   53  A    between atoms: _126  and  _127
REMARK   54  A    between atoms: _130  and  _132
REMARK   55  A    between atoms: _132  and  _133
REMARK   56  A    between atoms: _132  and  _135
REMARK   57  A    between atoms: _135  and  _136
REMARK   58  A    between atoms: _139  and  _141
REMARK   59  A    between atoms: _141  and  _142
REMARK   60  A    between atoms: _141  and  _144
REMARK   61  A    between atoms: _144  and  _145
REMARK   62  A    between atoms: _155  and  _157
REMARK   63  A    between atoms: _157  and  _158
REMARK   64  A    between atoms: _157  and  _160
REMARK   65  A    between atoms: _160  and  _161
REMARK   66  A    between atoms: _164  and  _166
REMARK   67  A    between atoms: _166  and  _167
REMARK   68  A    between atoms: _166  and  _169
REMARK   69  A    between atoms: _169  and  _170
REMARK   70  A    between atoms: _172  and  _174
REMARK   71  A    between atoms: _174  and  _175
REMARK   72  A    between atoms: _174  and  _177
REMARK   73  A    between atoms: _177  and  _178
REMARK   74  A    between atoms: _183  and  _184
REMARK   75  A    between atoms: _186  and  _188
REMARK   76  A    between atoms: _188  and  _189
REMARK   77  A    between atoms: _191  and  _193
REMARK   78  A    between atoms: _193  and  _194
REMARK   79  A    between atoms: _193  and  _196
REMARK   80  A    between atoms: _196  and  _197
REMARK   81  A    between atoms: _200  and  _202
REMARK   82  A    between atoms: _202  and  _203
REMARK   83  A    between atoms: _205  and  _207
REMARK   84  A    between atoms: _207  and  _208
REMARK   85  A    between atoms: _207  and  _210
REMARK   86  A    between atoms: _210  and  _211
REMARK   87  A    between atoms: _213  and  _215
REMARK   88  A    between atoms: _215  and  _216
REMARK   89  A    between atoms: _215  and  _218
REMARK   90  A    between atoms: _218  and  _219
REMARK   91  A    between atoms: _221  and  _223
REMARK   92  A    between atoms: _223  and  _224
REMARK   93  A    between atoms: _223  and  _226
REMARK   94  A    between atoms: _226  and  _227
REMARK   95  A    between atoms: _227  and  _228
REMARK   96  A    between atoms: _233  and  _235
REMARK   97  A    between atoms: _235  and  _236
REMARK   98  A    between atoms: _235  and  _238
REMARK   99  A    between atoms: _238  and  _239
REMARK  100  A    between atoms: _245  and  _247
REMARK  101  A    between atoms: _247  and  _248
REMARK  102  A    between atoms: _247  and  _250
REMARK  103  A    between atoms: _250  and  _251
REMARK  104  A    between atoms: _254  and  _256
REMARK  105  A    between atoms: _256  and  _257
REMARK  106  A    between atoms: _256  and  _259
REMARK  107  A    between atoms: _259  and  _260
REMARK  108  A    between atoms: _265  and  _267
REMARK  109  A    between atoms: _267  and  _268
REMARK  110  A    between atoms: _267  and  _270
REMARK  111  A    between atoms: _270  and  _271
REMARK  112  A    between atoms: _276  and  _278
REMARK  113  A    between atoms: _278  and  _279
REMARK  114  A    between atoms: _281  and  _283
REMARK  115  A    between atoms: _283  and  _284
REMARK  116  A    between atoms: _283  and  _286
REMARK  117  A    between atoms: _286  and  _287
REMARK  118  A    between atoms: _290  and  _292
REMARK  119  A    between atoms: _292  and  _293
REMARK  120  A    between atoms: _292  and  _295
REMARK  121  A    between atoms: _295  and  _296
REMARK  122  A    between atoms: _299  and  _301
REMARK  123  A    between atoms: _301  and  _302
REMARK  124  A    between atoms: _304  and  _306
REMARK  125  A    between atoms: _306  and  _307
REMARK  126  A    between atoms: _306  and  _309
REMARK  127  A    between atoms: _309  and  _310
REMARK  128  A    between atoms: _313  and  _315
REMARK  129  A    between atoms: _315  and  _316
REMARK  130  A    between atoms: _319  and  _321
REMARK  131  A    between atoms: _321  and  _322
REMARK  132  A    between atoms: _321  and  _324
REMARK  133  A    between atoms: _324  and  _325
REMARK  134  A    between atoms: _328  and  _330
REMARK  135  A    between atoms: _330  and  _331
REMARK  136  A    between atoms: _330  and  _333
REMARK  137  A    between atoms: _333  and  _334
REMARK  138  A    between atoms: _337  and  _339
REMARK  139  A    between atoms: _339  and  _340
REMARK  140  A    between atoms: _339  and  _342
REMARK  141  A    between atoms: _342  and  _343
REMARK  142  A    between atoms: _349  and  _351
REMARK  143  A    between atoms: _351  and  _352
REMARK  144  A    between atoms: _351  and  _354
REMARK  145  A    between atoms: _354  and  _355
REMARK  146  A    between atoms: _365  and  _367
REMARK  147  A    between atoms: _367  and  _368
REMARK  148  A    between atoms: _367  and  _370
REMARK  149  A    between atoms: _370  and  _371
REMARK  150  A    between atoms: _374  and  _376
REMARK  151  A    between atoms: _376  and  _377
REMARK  152  A    between atoms: _380  and  _382
REMARK  153  A    between atoms: _382  and  _383
REMARK  154  A    between atoms: _382  and  _385
REMARK  155  A    between atoms: _385  and  _386
REMARK  156  A    between atoms: _389  and  _391
REMARK  157  A    between atoms: _391  and  _392
REMARK  158  A    between atoms: _391  and  _394
REMARK  159  A    between atoms: _394  and  _395
REMARK  160  A    between atoms: _398  and  _400
REMARK  161  A    between atoms: _400  and  _401
REMARK  162  A    between atoms: _403  and  _405
REMARK  163  A    between atoms: _405  and  _406
REMARK  164  A    between atoms: _405  and  _408
REMARK  165  A    between atoms: _408  and  _409
REMARK  166  A    between atoms: _412  and  _414
REMARK  167  A    between atoms: _414  and  _415
REMARK  168  A    between atoms: _414  and  _417
REMARK  169  A    between atoms: _417  and  _418
REMARK  170  A    between atoms: _421  and  _423
REMARK  171  A    between atoms: _423  and  _424
REMARK  172  A    between atoms: _423  and  _426
REMARK  173  A    between atoms: _426  and  _427
REMARK  174  A    between atoms: _430  and  _432
REMARK  175  A    between atoms: _432  and  _433
REMARK  176  A    between atoms: _432  and  _435
REMARK  177  A    between atoms: _435  and  _436
REMARK  178  A    between atoms: _439  and  _441
REMARK  179  A    between atoms: _441  and  _442
REMARK  180  A    between atoms: _441  and  _444
REMARK  181  A    between atoms: _444  and  _445
REMARK  182  A    between atoms: _448  and  _450
REMARK  183  A    between atoms: _450  and  _451
REMARK  184  A    between atoms: _454  and  _456
REMARK  185  A    between atoms: _456  and  _457
REMARK  186  A    between atoms: _459  and  _461
REMARK  187  A    between atoms: _461  and  _462
REMARK  188  A    between atoms: _464  and  _466
REMARK  189  A    between atoms: _466  and  _467
REMARK  190  A    between atoms: _466  and  _469
REMARK  191  A    between atoms: _469  and  _470
REMARK  192  A    between atoms: _475  and  _476
REMARK  193  A    between atoms: _479  and  _480
REMARK  194  A    between atoms: _485  and  _487
REMARK  195  A    between atoms: _487  and  _488
REMARK  196  A    between atoms: _487  and  _490
REMARK  197  A    between atoms: _490  and  _491
REMARK  198  A    between atoms: _493  and  _495
REMARK  199  A    between atoms: _495  and  _496
REMARK  200  A    between atoms: _495  and  _498
REMARK  201  A    between atoms: _498  and  _499
REMARK  202  A    between atoms: _502  and  _504
REMARK  203  A    between atoms: _504  and  _505
REMARK  204  A    between atoms: _507  and  _509
REMARK  205  A    between atoms: _509  and  _510
REMARK  206  A    between atoms: _509  and  _512
REMARK  207  A    between atoms: _512  and  _513
REMARK  208  A    between atoms: _513  and  _514
REMARK  209  A    between atoms: _519  and  _521
REMARK  210  A    between atoms: _521  and  _522
REMARK  211  A    between atoms: _521  and  _524
REMARK  212  A    between atoms: _524  and  _525
REMARK  213  A    between atoms: _527  and  _529
REMARK  214  A    between atoms: _529  and  _530
REMARK  215  A    between atoms: _529  and  _532
REMARK  216  A    between atoms: _532  and  _533
REMARK  217  A    between atoms: _538  and  _540
REMARK  218  A    between atoms: _540  and  _541
REMARK  219  A    between atoms: _540  and  _543
REMARK  220  A    between atoms: _543  and  _544
REMARK  221  A    between atoms: _546  and  _548
REMARK  222  A    between atoms: _548  and  _549
REMARK  223  A    between atoms: _548  and  _551
REMARK  224  A    between atoms: _551  and  _552
REMARK  225  A    between atoms: _555  and  _557
REMARK  226  A    between atoms: _557  and  _558
REMARK  227  A    between atoms: _557  and  _560
REMARK  228  A    between atoms: _560  and  _561
REMARK  229  A    between atoms: _567  and  _569
REMARK  230  A    between atoms: _569  and  _570
REMARK  231  A    between atoms: _569  and  _572
REMARK  232  A    between atoms: _572  and  _573
REMARK  233  A    between atoms: _575  and  _577
REMARK  234  A    between atoms: _577  and  _578
REMARK  235  A    between atoms: _577  and  _580
REMARK  236  A    between atoms: _580  and  _581
REMARK  237  A    between atoms: _584  and  _586
REMARK  238  A    between atoms: _586  and  _587
REMARK  239  A    between atoms: _586  and  _589
REMARK  240  A    between atoms: _589  and  _590
REMARK  241  A    between atoms: _596  and  _598
REMARK  242  A    between atoms: _598  and  _599
REMARK  243  A    between atoms: _601  and  _603
REMARK  244  A    between atoms: _603  and  _604
REMARK  245  A    between atoms: _603  and  _606
REMARK  246  A    between atoms: _606  and  _607
REMARK                            x       y       z     vdW  Elec       q    Type
REMARK                         _______ _______ _______ _____ _____    ______ ____
ROOT
ATOM      1  O   HOH     1      15.289   8.163  19.993  0.00  0.00    +0.000 OA
ENDROOT
TORSDOF 0
REMARK  Name = ../refined-set-2016/1ppl/1ppl_pocket.pdb
REMARK  246 active torsions:
REMARK  status: ('A' for Active; 'I' for Inactive)
REMARK    1  A    between atoms: _1  and  _3
REMARK    2  A    between atoms: _3  and  _4
REMARK    3  A    between atoms: _3  and  _6
REMARK    4  A    between atoms: _6  and  _7
REMARK    5  A    between atoms: _10  and  _12
REMARK    6  A    between atoms: _12  and  _13
REMARK    7  A    between atoms: _16  and  _18
REMARK    8  A    between atoms: _18  and  _19
REMARK    9  A    between atoms: _18  and  _21
REMARK   10  A    between atoms: _21  and  _22
REMARK   11  A    between atoms: _27  and  _29
REMARK   12  A    between atoms: _29  and  _30
REMARK   13  A    between atoms: _29  and  _32
REMARK   14  A    between atoms: _32  and  _33
REMARK   15  A    between atoms: _36  and  _38
REMARK   16  A    between atoms: _38  and  _39
REMARK   17  A    between atoms: _38  and  _41
REMARK   18  A    between atoms: _41  and  _42
REMARK   19  A    between atoms: _42  and  _43
REMARK   20  A    between atoms: _46  and  _48
REMARK   21  A    between atoms: _48  and  _49
REMARK   22  A    between atoms: _48  and  _51
REMARK   23  A    between atoms: _51  and  _52
REMARK   24  A    between atoms: _52  and  _53
REMARK   25  A    between atoms: _56  and  _58
REMARK   26  A    between atoms: _58  and  _59
REMARK   27  A    between atoms: _58  and  _61
REMARK   28  A    between atoms: _61  and  _62
REMARK   29  A    between atoms: _67  and  _68
REMARK   30  A    between atoms: _70  and  _72
REMARK   31  A    between atoms: _72  and  _73
REMARK   32  A    between atoms: _72  and  _75
REMARK   33  A    between atoms: _75  and  _76
REMARK   34  A    between atoms: _81  and  _83
REMARK   35  A    between atoms: _83  and  _84
REMARK   36  A    between atoms: _83  and  _86
REMARK   37  A    between atoms: _86  and  _87
REMARK   38  A    between atoms: _93  and  _95
REMARK   39  A    between atoms: _95  and  _96
REMARK   40  A    between atoms: _95  and  _98
REMARK   41  A    between atoms: _98  and  _99
REMARK   42  A    between atoms: _102  and  _104
REMARK   43  A    between atoms: _104  and  _105
REMARK   44  A    between atoms: _104  and  _107
REMARK   45  A    between atoms: _107  and  _108
REMARK   46  A    between atoms: _111  and  _113
REMARK   47  A    between atoms: _113  and  _114
REMARK   48  A    between atoms: _116  and  _118
REMARK   49  A    between atoms: _118  and  _119
REMARK   50  A    between atoms: _118  and  _121
REMARK   51  A    between atoms: _121  and  _122
REMARK   52  A    between atoms: _124  and  _126
REMARK   53  A    between atoms: _126  and  _127
REMARK   54  A    between atoms: _130  and  _132
REMARK   55  A    between atoms: _132  and  _133
REMARK   56  A    between atoms: _132  and  _135
REMARK   57  A    between atoms: _135  and  _136
REMARK   58  A    between atoms: _139  and  _141
REMARK   59  A    between atoms: _141  and  _142
REMARK   60  A    between atoms: _141  and  _144
REMARK   61  A    between atoms: _144  and  _145
REMARK   62  A    between atoms: _155  and  _157
REMARK   63  A    between atoms: _157  and  _158
REMARK   64  A    between atoms: _157  and  _160
REMARK   65  A    between atoms: _160  and  _161
REMARK   66  A    between atoms: _164  and  _166
REMARK   67  A    between atoms: _166  and  _167
REMARK   68  A    between atoms: _166  and  _169
REMARK   69  A    between atoms: _169  and  _170
REMARK   70  A    between atoms: _172  and  _174
REMARK   71  A    between atoms: _174  and  _175
REMARK   72  A    between atoms: _174  and  _177
REMARK   73  A    between atoms: _177  and  _178
REMARK   74  A    between atoms: _183  and  _184
REMARK   75  A    between atoms: _186  and  _188
REMARK   76  A    between atoms: _188  and  _189
REMARK   77  A    between atoms: _191  and  _193
REMARK   78  A    between atoms: _193  and  _194
REMARK   79  A    between atoms: _193  and  _196
REMARK   80  A    between atoms: _196  and  _197
REMARK   81  A    between atoms: _200  and  _202
REMARK   82  A    between atoms: _202  and  _203
REMARK   83  A    between atoms: _205  and  _207
REMARK   84  A    between atoms: _207  and  _208
REMARK   85  A    between atoms: _207  and  _210
REMARK   86  A    between atoms: _210  and  _211
REMARK   87  A    between atoms: _213  and  _215
REMARK   88  A    between atoms: _215  and  _216
REMARK   89  A    between atoms: _215  and  _218
REMARK   90  A    between atoms: _218  and  _219
REMARK   91  A    between atoms: _221  and  _223
REMARK   92  A    between atoms: _223  and  _224
REMARK   93  A    between atoms: _223  and  _226
REMARK   94  A    between atoms: _226  and  _227
REMARK   95  A    between atoms: _227  and  _228
REMARK   96  A    between atoms: _233  and  _235
REMARK   97  A    between atoms: _235  and  _236
REMARK   98  A    between atoms: _235  and  _238
REMARK   99  A    between atoms: _238  and  _239
REMARK  100  A    between atoms: _245  and  _247
REMARK  101  A    between atoms: _247  and  _248
REMARK  102  A    between atoms: _247  and  _250
REMARK  103  A    between atoms: _250  and  _251
REMARK  104  A    between atoms: _254  and  _256
REMARK  105  A    between atoms: _256  and  _257
REMARK  106  A    between atoms: _256  and  _259
REMARK  107  A    between atoms: _259  and  _260
REMARK  108  A    between atoms: _265  and  _267
REMARK  109  A    between atoms: _267  and  _268
REMARK  110  A    between atoms: _267  and  _270
REMARK  111  A    between atoms: _270  and  _271
REMARK  112  A    between atoms: _276  and  _278
REMARK  113  A    between atoms: _278  and  _279
REMARK  114  A    between atoms: _281  and  _283
REMARK  115  A    between atoms: _283  and  _284
REMARK  116  A    between atoms: _283  and  _286
REMARK  117  A    between atoms: _286  and  _287
REMARK  118  A    between atoms: _290  and  _292
REMARK  119  A    between atoms: _292  and  _293
REMARK  120  A    between atoms: _292  and  _295
REMARK  121  A    between atoms: _295  and  _296
REMARK  122  A    between atoms: _299  and  _301
REMARK  123  A    between atoms: _301  and  _302
REMARK  124  A    between atoms: _304  and  _306
REMARK  125  A    between atoms: _306  and  _307
REMARK  126  A    between atoms: _306  and  _309
REMARK  127  A    between atoms: _309  and  _310
REMARK  128  A    between atoms: _313  and  _315
REMARK  129  A    between atoms: _315  and  _316
REMARK  130  A    between atoms: _319  and  _321
REMARK  131  A    between atoms: _321  and  _322
REMARK  132  A    between atoms: _321  and  _324
REMARK  133  A    between atoms: _324  and  _325
REMARK  134  A    between atoms: _328  and  _330
REMARK  135  A    between atoms: _330  and  _331
REMARK  136  A    between atoms: _330  and  _333
REMARK  137  A    between atoms: _333  and  _334
REMARK  138  A    between atoms: _337  and  _339
REMARK  139  A    between atoms: _339  and  _340
REMARK  140  A    between atoms: _339  and  _342
REMARK  141  A    between atoms: _342  and  _343
REMARK  142  A    between atoms: _349  and  _351
REMARK  143  A    between atoms: _351  and  _352
REMARK  144  A    between atoms: _351  and  _354
REMARK  145  A    between atoms: _354  and  _355
REMARK  146  A    between atoms: _365  and  _367
REMARK  147  A    between atoms: _367  and  _368
REMARK  148  A    between atoms: _367  and  _370
REMARK  149  A    between atoms: _370  and  _371
REMARK  150  A    between atoms: _374  and  _376
REMARK  151  A    between atoms: _376  and  _377
REMARK  152  A    between atoms: _380  and  _382
REMARK  153  A    between atoms: _382  and  _383
REMARK  154  A    between atoms: _382  and  _385
REMARK  155  A    between atoms: _385  and  _386
REMARK  156  A    between atoms: _389  and  _391
REMARK  157  A    between atoms: _391  and  _392
REMARK  158  A    between atoms: _391  and  _394
REMARK  159  A    between atoms: _394  and  _395
REMARK  160  A    between atoms: _398  and  _400
REMARK  161  A    between atoms: _400  and  _401
REMARK  162  A    between atoms: _403  and  _405
REMARK  163  A    between atoms: _405  and  _406
REMARK  164  A    between atoms: _405  and  _408
REMARK  165  A    between atoms: _408  and  _409
REMARK  166  A    between atoms: _412  and  _414
REMARK  167  A    between atoms: _414  and  _415
REMARK  168  A    between atoms: _414  and  _417
REMARK  169  A    between atoms: _417  and  _418
REMARK  170  A    between atoms: _421  and  _423
REMARK  171  A    between atoms: _423  and  _424
REMARK  172  A    between atoms: _423  and  _426
REMARK  173  A    between atoms: _426  and  _427
REMARK  174  A    between atoms: _430  and  _432
REMARK  175  A    between atoms: _432  and  _433
REMARK  176  A    between atoms: _432  and  _435
REMARK  177  A    between atoms: _435  and  _436
REMARK  178  A    between atoms: _439  and  _441
REMARK  179  A    between atoms: _441  and  _442
REMARK  180  A    between atoms: _441  and  _444
REMARK  181  A    between atoms: _444  and  _445
REMARK  182  A    between atoms: _448  and  _450
REMARK  183  A    between atoms: _450  and  _451
REMARK  184  A    between atoms: _454  and  _456
REMARK  185  A    between atoms: _456  and  _457
REMARK  186  A    between atoms: _459  and  _461
REMARK  187  A    between atoms: _461  and  _462
REMARK  188  A    between atoms: _464  and  _466
REMARK  189  A    between atoms: _466  and  _467
REMARK  190  A    between atoms: _466  and  _469
REMARK  191  A    between atoms: _469  and  _470
REMARK  192  A    between atoms: _475  and  _476
REMARK  193  A    between atoms: _479  and  _480
REMARK  194  A    between atoms: _485  and  _487
REMARK  195  A    between atoms: _487  and  _488
REMARK  196  A    between atoms: _487  and  _490
REMARK  197  A    between atoms: _490  and  _491
REMARK  198  A    between atoms: _493  and  _495
REMARK  199  A    between atoms: _495  and  _496
REMARK  200  A    between atoms: _495  and  _498
REMARK  201  A    between atoms: _498  and  _499
REMARK  202  A    between atoms: _502  and  _504
REMARK  203  A    between atoms: _504  and  _505
REMARK  204  A    between atoms: _507  and  _509
REMARK  205  A    between atoms: _509  and  _510
REMARK  206  A    between atoms: _509  and  _512
REMARK  207  A    between atoms: _512  and  _513
REMARK  208  A    between atoms: _513  and  _514
REMARK  209  A    between atoms: _519  and  _521
REMARK  210  A    between atoms: _521  and  _522
REMARK  211  A    between atoms: _521  and  _524
REMARK  212  A    between atoms: _524  and  _525
REMARK  213  A    between atoms: _527  and  _529
REMARK  214  A    between atoms: _529  and  _530
REMARK  215  A    between atoms: _529  and  _532
REMARK  216  A    between atoms: _532  and  _533
REMARK  217  A    between atoms: _538  and  _540
REMARK  218  A    between atoms: _540  and  _541
REMARK  219  A    between atoms: _540  and  _543
REMARK  220  A    between atoms: _543  and  _544
REMARK  221  A    between atoms: _546  and  _548
REMARK  222  A    between atoms: _548  and  _549
REMARK  223  A    between atoms: _548  and  _551
REMARK  224  A    between atoms: _551  and  _552
REMARK  225  A    between atoms: _555  and  _557
REMARK  226  A    between atoms: _557  and  _558
REMARK  227  A    between atoms: _557  and  _560
REMARK  228  A    between atoms: _560  and  _561
REMARK  229  A    between atoms: _567  and  _569
REMARK  230  A    between atoms: _569  and  _570
REMARK  231  A    between atoms: _569  and  _572
REMARK  232  A    between atoms: _572  and  _573
REMARK  233  A    between atoms: _575  and  _577
REMARK  234  A    between atoms: _577  and  _578
REMARK  235  A    between atoms: _577  and  _580
REMARK  236  A    between atoms: _580  and  _581
REMARK  237  A    between atoms: _584  and  _586
REMARK  238  A    between atoms: _586  and  _587
REMARK  239  A    between atoms: _586  and  _589
REMARK  240  A    between atoms: _589  and  _590
REMARK  241  A    between atoms: _596  and  _598
REMARK  242  A    between atoms: _598  and  _599
REMARK  243  A    between atoms: _601  and  _603
REMARK  244  A    between atoms: _603  and  _604
REMARK  245  A    between atoms: _603  and  _606
REMARK  246  A    between atoms: _606  and  _607
REMARK                            x       y       z     vdW  Elec       q    Type
REMARK                         _______ _______ _______ _____ _____    ______ ____
ROOT
ATOM      1  O   HOH     1      14.176   6.630  22.321  0.00  0.00    +0.000 OA
ENDROOT
TORSDOF 0
