REMARK  Name = ../refined-set-2016/1hsh/1hsh_pocket.pdb
REMARK  239 active torsions:
REMARK  status: ('A' for Active; 'I' for Inactive)
REMARK    1  A    between atoms: _1  and  _3
REMARK    2  A    between atoms: _3  and  _4
REMARK    3  A    between atoms: _3  and  _6
REMARK    4  A    between atoms: _6  and  _7
REMARK    5  A    between atoms: _7  and  _8
REMARK    6  A    between atoms: _8  and  _9
REMARK    7  A    between atoms: _18  and  _20
REMARK    8  A    between atoms: _20  and  _21
REMARK    9  A    between atoms: _20  and  _23
REMARK   10  A    between atoms: _23  and  _24
REMARK   11  A    between atoms: _27  and  _29
REMARK   12  A    between atoms: _29  and  _30
REMARK   13  A    between atoms: _29  and  _32
REMARK   14  A    between atoms: _32  and  _33
REMARK   15  A    between atoms: _36  and  _38
REMARK   16  A    between atoms: _38  and  _39
REMARK   17  A    between atoms: _38  and  _41
REMARK   18  A    between atoms: _41  and  _42
REMARK   19  A    between atoms: _45  and  _47
REMARK   20  A    between atoms: _47  and  _48
REMARK   21  A    between atoms: _47  and  _50
REMARK   22  A    between atoms: _50  and  _51
REMARK   23  A    between atoms: _54  and  _56
REMARK   24  A    between atoms: _56  and  _57
REMARK   25  A    between atoms: _59  and  _61
REMARK   26  A    between atoms: _61  and  _62
REMARK   27  A    between atoms: _65  and  _67
REMARK   28  A    between atoms: _67  and  _68
REMARK   29  A    between atoms: _67  and  _70
REMARK   30  A    between atoms: _70  and  _71
REMARK   31  A    between atoms: _74  and  _76
REMARK   32  A    between atoms: _76  and  _77
REMARK   33  A    between atoms: _76  and  _79
REMARK   34  A    between atoms: _79  and  _80
REMARK   35  A    between atoms: _83  and  _85
REMARK   36  A    between atoms: _85  and  _86
REMARK   37  A    between atoms: _85  and  _88
REMARK   38  A    between atoms: _88  and  _89
REMARK   39  A    between atoms: _91  and  _93
REMARK   40  A    between atoms: _93  and  _94
REMARK   41  A    between atoms: _93  and  _96
REMARK   42  A    between atoms: _96  and  _97
REMARK   43  A    between atoms: _100  and  _102
REMARK   44  A    between atoms: _102  and  _103
REMARK   45  A    between atoms: _102  and  _105
REMARK   46  A    between atoms: _108  and  _110
REMARK   47  A    between atoms: _110  and  _111
REMARK   48  A    between atoms: _110  and  _113
REMARK   49  A    between atoms: _113  and  _114
REMARK   50  A    between atoms: _114  and  _115
REMARK   51  A    between atoms: _115  and  _116
REMARK   52  A    between atoms: _116  and  _117
REMARK   53  A    between atoms: _121  and  _123
REMARK   54  A    between atoms: _123  and  _124
REMARK   55  A    between atoms: _123  and  _126
REMARK   56  A    between atoms: _126  and  _127
REMARK   57  A    between atoms: _130  and  _132
REMARK   58  A    between atoms: _132  and  _133
REMARK   59  A    between atoms: _132  and  _135
REMARK   60  A    between atoms: _138  and  _140
REMARK   61  A    between atoms: _140  and  _141
REMARK   62  A    between atoms: _143  and  _145
REMARK   63  A    between atoms: _145  and  _146
REMARK   64  A    between atoms: _148  and  _150
REMARK   65  A    between atoms: _150  and  _151
REMARK   66  A    between atoms: _150  and  _153
REMARK   67  A    between atoms: _153  and  _154
REMARK   68  A    between atoms: _157  and  _159
REMARK   69  A    between atoms: _159  and  _160
REMARK   70  A    between atoms: _162  and  _164
REMARK   71  A    between atoms: _164  and  _165
REMARK   72  A    between atoms: _167  and  _169
REMARK   73  A    between atoms: _169  and  _170
REMARK   74  A    between atoms: _169  and  _172
REMARK   75  A    between atoms: _172  and  _173
REMARK   76  A    between atoms: _179  and  _181
REMARK   77  A    between atoms: _181  and  _182
REMARK   78  A    between atoms: _181  and  _184
REMARK   79  A    between atoms: _184  and  _185
REMARK   80  A    between atoms: _188  and  _190
REMARK   81  A    between atoms: _190  and  _191
REMARK   82  A    between atoms: _190  and  _193
REMARK   83  A    between atoms: _193  and  _194
REMARK   84  A    between atoms: _197  and  _199
REMARK   85  A    between atoms: _199  and  _200
REMARK   86  A    between atoms: _199  and  _202
REMARK   87  A    between atoms: _202  and  _203
REMARK   88  A    between atoms: _203  and  _204
REMARK   89  A    between atoms: _206  and  _208
REMARK   90  A    between atoms: _208  and  _209
REMARK   91  A    between atoms: _208  and  _211
REMARK   92  A    between atoms: _211  and  _212
REMARK   93  A    between atoms: _216  and  _217
REMARK   94  A    between atoms: _222  and  _224
REMARK   95  A    between atoms: _224  and  _225
REMARK   96  A    between atoms: _224  and  _227
REMARK   97  A    between atoms: _227  and  _228
REMARK   98  A    between atoms: _231  and  _233
REMARK   99  A    between atoms: _233  and  _234
REMARK  100  A    between atoms: _233  and  _236
REMARK  101  A    between atoms: _236  and  _237
REMARK  102  A    between atoms: _242  and  _244
REMARK  103  A    between atoms: _244  and  _245
REMARK  104  A    between atoms: _244  and  _247
REMARK  105  A    between atoms: _247  and  _248
REMARK  106  A    between atoms: _251  and  _253
REMARK  107  A    between atoms: _253  and  _254
REMARK  108  A    between atoms: _253  and  _256
REMARK  109  A    between atoms: _256  and  _257
REMARK  110  A    between atoms: _263  and  _265
REMARK  111  A    between atoms: _265  and  _266
REMARK  112  A    between atoms: _268  and  _270
REMARK  113  A    between atoms: _270  and  _271
REMARK  114  A    between atoms: _270  and  _273
REMARK  115  A    between atoms: _273  and  _274
REMARK  116  A    between atoms: _274  and  _275
REMARK  117  A    between atoms: _275  and  _276
REMARK  118  A    between atoms: _285  and  _287
REMARK  119  A    between atoms: _287  and  _288
REMARK  120  A    between atoms: _287  and  _290
REMARK  121  A    between atoms: _290  and  _291
REMARK  122  A    between atoms: _296  and  _298
REMARK  123  A    between atoms: _298  and  _299
REMARK  124  A    between atoms: _298  and  _301
REMARK  125  A    between atoms: _301  and  _302
REMARK  126  A    between atoms: _302  and  _303
REMARK  127  A    between atoms: _303  and  _304
REMARK  128  A    between atoms: _313  and  _315
REMARK  129  A    between atoms: _315  and  _316
REMARK  130  A    between atoms: _315  and  _318
REMARK  131  A    between atoms: _318  and  _319
REMARK  132  A    between atoms: _322  and  _324
REMARK  133  A    between atoms: _324  and  _325
REMARK  134  A    between atoms: _324  and  _327
REMARK  135  A    between atoms: _327  and  _328
REMARK  136  A    between atoms: _331  and  _333
REMARK  137  A    between atoms: _333  and  _334
REMARK  138  A    between atoms: _333  and  _336
REMARK  139  A    between atoms: _336  and  _337
REMARK  140  A    between atoms: _340  and  _342
REMARK  141  A    between atoms: _342  and  _343
REMARK  142  A    between atoms: _342  and  _345
REMARK  143  A    between atoms: _345  and  _346
REMARK  144  A    between atoms: _349  and  _351
REMARK  145  A    between atoms: _351  and  _352
REMARK  146  A    between atoms: _354  and  _356
REMARK  147  A    between atoms: _356  and  _357
REMARK  148  A    between atoms: _360  and  _362
REMARK  149  A    between atoms: _362  and  _363
REMARK  150  A    between atoms: _362  and  _365
REMARK  151  A    between atoms: _365  and  _366
REMARK  152  A    between atoms: _369  and  _371
REMARK  153  A    between atoms: _371  and  _372
REMARK  154  A    between atoms: _371  and  _374
REMARK  155  A    between atoms: _374  and  _375
REMARK  156  A    between atoms: _378  and  _380
REMARK  157  A    between atoms: _380  and  _381
REMARK  158  A    between atoms: _380  and  _383
REMARK  159  A    between atoms: _383  and  _384
REMARK  160  A    between atoms: _386  and  _388
REMARK  161  A    between atoms: _388  and  _389
REMARK  162  A    between atoms: _388  and  _391
REMARK  163  A    between atoms: _391  and  _392
REMARK  164  A    between atoms: _395  and  _397
REMARK  165  A    between atoms: _397  and  _398
REMARK  166  A    between atoms: _397  and  _400
REMARK  167  A    between atoms: _400  and  _401
REMARK  168  A    between atoms: _401  and  _402
REMARK  169  A    between atoms: _402  and  _403
REMARK  170  A    between atoms: _403  and  _404
REMARK  171  A    between atoms: _408  and  _410
REMARK  172  A    between atoms: _410  and  _411
REMARK  173  A    between atoms: _410  and  _413
REMARK  174  A    between atoms: _413  and  _414
REMARK  175  A    between atoms: _417  and  _419
REMARK  176  A    between atoms: _419  and  _420
REMARK  177  A    between atoms: _419  and  _422
REMARK  178  A    between atoms: _425  and  _427
REMARK  179  A    between atoms: _427  and  _428
REMARK  180  A    between atoms: _430  and  _432
REMARK  181  A    between atoms: _432  and  _433
REMARK  182  A    between atoms: _435  and  _437
REMARK  183  A    between atoms: _437  and  _438
REMARK  184  A    between atoms: _437  and  _440
REMARK  185  A    between atoms: _440  and  _441
REMARK  186  A    between atoms: _444  and  _446
REMARK  187  A    between atoms: _446  and  _447
REMARK  188  A    between atoms: _449  and  _451
REMARK  189  A    between atoms: _451  and  _452
REMARK  190  A    between atoms: _454  and  _456
REMARK  191  A    between atoms: _456  and  _457
REMARK  192  A    between atoms: _456  and  _459
REMARK  193  A    between atoms: _459  and  _460
REMARK  194  A    between atoms: _466  and  _468
REMARK  195  A    between atoms: _468  and  _469
REMARK  196  A    between atoms: _468  and  _471
REMARK  197  A    between atoms: _471  and  _472
REMARK  198  A    between atoms: _475  and  _477
REMARK  199  A    between atoms: _477  and  _478
REMARK  200  A    between atoms: _477  and  _480
REMARK  201  A    between atoms: _480  and  _481
REMARK  202  A    between atoms: _484  and  _486
REMARK  203  A    between atoms: _486  and  _487
REMARK  204  A    between atoms: _486  and  _489
REMARK  205  A    between atoms: _489  and  _490
REMARK  206  A    between atoms: _490  and  _491
REMARK  207  A    between atoms: _493  and  _495
REMARK  208  A    between atoms: _495  and  _496
REMARK  209  A    between atoms: _495  and  _498
REMARK  210  A    between atoms: _498  and  _499
REMARK  211  A    between atoms: _503  and  _504
REMARK  212  A    between atoms: _509  and  _511
REMARK  213  A    between atoms: _511  and  _512
REMARK  214  A    between atoms: _511  and  _514
REMARK  215  A    between atoms: _514  and  _515
REMARK  216  A    between atoms: _518  and  _520
REMARK  217  A    between atoms: _520  and  _521
REMARK  218  A    between atoms: _520  and  _523
REMARK  219  A    between atoms: _523  and  _524
REMARK  220  A    between atoms: _529  and  _531
REMARK  221  A    between atoms: _531  and  _532
REMARK  222  A    between atoms: _531  and  _534
REMARK  223  A    between atoms: _534  and  _535
REMARK  224  A    between atoms: _538  and  _540
REMARK  225  A    between atoms: _540  and  _541
REMARK  226  A    between atoms: _540  and  _543
REMARK  227  A    between atoms: _543  and  _544
REMARK  228  A    between atoms: _550  and  _552
REMARK  229  A    between atoms: _552  and  _553
REMARK  230  A    between atoms: _555  and  _557
REMARK  231  A    between atoms: _557  and  _558
REMARK  232  A    between atoms: _557  and  _560
REMARK  233  A    between atoms: _560  and  _561
REMARK  234  A    between atoms: _561  and  _562
REMARK  235  A    between atoms: _562  and  _563
REMARK  236  A    between atoms: _572  and  _574
REMARK  237  A    between atoms: _574  and  _575
REMARK  238  A    between atoms: _574  and  _577
REMARK  239  A    between atoms: _577  and  _578
REMARK                            x       y       z     vdW  Elec       q    Type
REMARK                         _______ _______ _______ _____ _____    ______ ____
ROOT
ATOM      1  NE  ARG A   1      16.131  10.183   8.191  0.00  0.00    -0.265 N 
ATOM      2  CZ  ARG A   1      15.766  10.279   9.473  0.00  0.00    +0.342 C 
ATOM      3  NH2 ARG A   1      16.220   9.400  10.356  0.00  0.00    -0.292 N 
ATOM      4 HH21 ARG A   1      15.938   9.472  11.354  0.00  0.00    +0.255 HD
ATOM      5 HH22 ARG A   1      16.859   8.638  10.050  0.00  0.00    +0.255 HD
ATOM      6  NH1 ARG A   1      14.983  11.263   9.890  0.00  0.00    -0.292 N 
ATOM      7 HH11 ARG A   1      14.710  11.321  10.892  0.00  0.00    +0.255 HD
ATOM      8 HH12 ARG A   1      14.642  11.977   9.216  0.00  0.00    +0.255 HD
ATOM      9  HE  ARG A   1      16.770   9.404   7.932  0.00  0.00    +0.259 HD
ENDROOT
BRANCH   1  10
ATOM     10  CD  ARG A   1      15.702  11.088   7.123  0.00  0.00    +0.174 C 
BRANCH  10  11
ATOM     11  CG  ARG A   1      16.631  11.044   5.906  0.00  0.00    +0.045 C 
BRANCH  11  12
ATOM     12  CB  ARG A   1      16.043  11.862   4.779  0.00  0.00    +0.029 C 
BRANCH  12  13
ATOM     13  CA  ARG A   1      16.802  11.813   3.443  0.00  0.00    +0.133 C 
BRANCH  13  14
ATOM     14  N   ARG A   1      18.122  12.459   3.555  0.00  0.00    -0.239 NA
ATOM     15  H   ARG A   1      18.395  12.891   4.461  0.00  0.00    +0.142 HD
ENDBRANCH  13  14
BRANCH  13  16
ATOM     16  C   ARG A   1      15.922  12.453   2.346  0.00  0.00    +0.224 C 
ATOM     17  O   ARG A   1      15.738  13.670   2.295  0.00  0.00    -0.287 OA
ENDBRANCH  13  16
ENDBRANCH  12  13
ENDBRANCH  11  12
ENDBRANCH  10  11
ENDBRANCH   1  10
TORSDOF 6
REMARK  Name = ../refined-set-2016/1hsh/1hsh_pocket.pdb
REMARK  239 active torsions:
REMARK  status: ('A' for Active; 'I' for Inactive)
REMARK    1  A    between atoms: _1  and  _3
REMARK    2  A    between atoms: _3  and  _4
REMARK    3  A    between atoms: _3  and  _6
REMARK    4  A    between atoms: _6  and  _7
REMARK    5  A    between atoms: _7  and  _8
REMARK    6  A    between atoms: _8  and  _9
REMARK    7  A    between atoms: _18  and  _20
REMARK    8  A    between atoms: _20  and  _21
REMARK    9  A    between atoms: _20  and  _23
REMARK   10  A    between atoms: _23  and  _24
REMARK   11  A    between atoms: _27  and  _29
REMARK   12  A    between atoms: _29  and  _30
REMARK   13  A    between atoms: _29  and  _32
REMARK   14  A    between atoms: _32  and  _33
REMARK   15  A    between atoms: _36  and  _38
REMARK   16  A    between atoms: _38  and  _39
REMARK   17  A    between atoms: _38  and  _41
REMARK   18  A    between atoms: _41  and  _42
REMARK   19  A    between atoms: _45  and  _47
REMARK   20  A    between atoms: _47  and  _48
REMARK   21  A    between atoms: _47  and  _50
REMARK   22  A    between atoms: _50  and  _51
REMARK   23  A    between atoms: _54  and  _56
REMARK   24  A    between atoms: _56  and  _57
REMARK   25  A    between atoms: _59  and  _61
REMARK   26  A    between atoms: _61  and  _62
REMARK   27  A    between atoms: _65  and  _67
REMARK   28  A    between atoms: _67  and  _68
REMARK   29  A    between atoms: _67  and  _70
REMARK   30  A    between atoms: _70  and  _71
REMARK   31  A    between atoms: _74  and  _76
REMARK   32  A    between atoms: _76  and  _77
REMARK   33  A    between atoms: _76  and  _79
REMARK   34  A    between atoms: _79  and  _80
REMARK   35  A    between atoms: _83  and  _85
REMARK   36  A    between atoms: _85  and  _86
REMARK   37  A    between atoms: _85  and  _88
REMARK   38  A    between atoms: _88  and  _89
REMARK   39  A    between atoms: _91  and  _93
REMARK   40  A    between atoms: _93  and  _94
REMARK   41  A    between atoms: _93  and  _96
REMARK   42  A    between atoms: _96  and  _97
REMARK   43  A    between atoms: _100  and  _102
REMARK   44  A    between atoms: _102  and  _103
REMARK   45  A    between atoms: _102  and  _105
REMARK   46  A    between atoms: _108  and  _110
REMARK   47  A    between atoms: _110  and  _111
REMARK   48  A    between atoms: _110  and  _113
REMARK   49  A    between atoms: _113  and  _114
REMARK   50  A    between atoms: _114  and  _115
REMARK   51  A    between atoms: _115  and  _116
REMARK   52  A    between atoms: _116  and  _117
REMARK   53  A    between atoms: _121  and  _123
REMARK   54  A    between atoms: _123  and  _124
REMARK   55  A    between atoms: _123  and  _126
REMARK   56  A    between atoms: _126  and  _127
REMARK   57  A    between atoms: _130  and  _132
REMARK   58  A    between atoms: _132  and  _133
REMARK   59  A    between atoms: _132  and  _135
REMARK   60  A    between atoms: _138  and  _140
REMARK   61  A    between atoms: _140  and  _141
REMARK   62  A    between atoms: _143  and  _145
REMARK   63  A    between atoms: _145  and  _146
REMARK   64  A    between atoms: _148  and  _150
REMARK   65  A    between atoms: _150  and  _151
REMARK   66  A    between atoms: _150  and  _153
REMARK   67  A    between atoms: _153  and  _154
REMARK   68  A    between atoms: _157  and  _159
REMARK   69  A    between atoms: _159  and  _160
REMARK   70  A    between atoms: _162  and  _164
REMARK   71  A    between atoms: _164  and  _165
REMARK   72  A    between atoms: _167  and  _169
REMARK   73  A    between atoms: _169  and  _170
REMARK   74  A    between atoms: _169  and  _172
REMARK   75  A    between atoms: _172  and  _173
REMARK   76  A    between atoms: _179  and  _181
REMARK   77  A    between atoms: _181  and  _182
REMARK   78  A    between atoms: _181  and  _184
REMARK   79  A    between atoms: _184  and  _185
REMARK   80  A    between atoms: _188  and  _190
REMARK   81  A    between atoms: _190  and  _191
REMARK   82  A    between atoms: _190  and  _193
REMARK   83  A    between atoms: _193  and  _194
REMARK   84  A    between atoms: _197  and  _199
REMARK   85  A    between atoms: _199  and  _200
REMARK   86  A    between atoms: _199  and  _202
REMARK   87  A    between atoms: _202  and  _203
REMARK   88  A    between atoms: _203  and  _204
REMARK   89  A    between atoms: _206  and  _208
REMARK   90  A    between atoms: _208  and  _209
REMARK   91  A    between atoms: _208  and  _211
REMARK   92  A    between atoms: _211  and  _212
REMARK   93  A    between atoms: _216  and  _217
REMARK   94  A    between atoms: _222  and  _224
REMARK   95  A    between atoms: _224  and  _225
REMARK   96  A    between atoms: _224  and  _227
REMARK   97  A    between atoms: _227  and  _228
REMARK   98  A    between atoms: _231  and  _233
REMARK   99  A    between atoms: _233  and  _234
REMARK  100  A    between atoms: _233  and  _236
REMARK  101  A    between atoms: _236  and  _237
REMARK  102  A    between atoms: _242  and  _244
REMARK  103  A    between atoms: _244  and  _245
REMARK  104  A    between atoms: _244  and  _247
REMARK  105  A    between atoms: _247  and  _248
REMARK  106  A    between atoms: _251  and  _253
REMARK  107  A    between atoms: _253  and  _254
REMARK  108  A    between atoms: _253  and  _256
REMARK  109  A    between atoms: _256  and  _257
REMARK  110  A    between atoms: _263  and  _265
REMARK  111  A    between atoms: _265  and  _266
REMARK  112  A    between atoms: _268  and  _270
REMARK  113  A    between atoms: _270  and  _271
REMARK  114  A    between atoms: _270  and  _273
REMARK  115  A    between atoms: _273  and  _274
REMARK  116  A    between atoms: _274  and  _275
REMARK  117  A    between atoms: _275  and  _276
REMARK  118  A    between atoms: _285  and  _287
REMARK  119  A    between atoms: _287  and  _288
REMARK  120  A    between atoms: _287  and  _290
REMARK  121  A    between atoms: _290  and  _291
REMARK  122  A    between atoms: _296  and  _298
REMARK  123  A    between atoms: _298  and  _299
REMARK  124  A    between atoms: _298  and  _301
REMARK  125  A    between atoms: _301  and  _302
REMARK  126  A    between atoms: _302  and  _303
REMARK  127  A    between atoms: _303  and  _304
REMARK  128  A    between atoms: _313  and  _315
REMARK  129  A    between atoms: _315  and  _316
REMARK  130  A    between atoms: _315  and  _318
REMARK  131  A    between atoms: _318  and  _319
REMARK  132  A    between atoms: _322  and  _324
REMARK  133  A    between atoms: _324  and  _325
REMARK  134  A    between atoms: _324  and  _327
REMARK  135  A    between atoms: _327  and  _328
REMARK  136  A    between atoms: _331  and  _333
REMARK  137  A    between atoms: _333  and  _334
REMARK  138  A    between atoms: _333  and  _336
REMARK  139  A    between atoms: _336  and  _337
REMARK  140  A    between atoms: _340  and  _342
REMARK  141  A    between atoms: _342  and  _343
REMARK  142  A    between atoms: _342  and  _345
REMARK  143  A    between atoms: _345  and  _346
REMARK  144  A    between atoms: _349  and  _351
REMARK  145  A    between atoms: _351  and  _352
REMARK  146  A    between atoms: _354  and  _356
REMARK  147  A    between atoms: _356  and  _357
REMARK  148  A    between atoms: _360  and  _362
REMARK  149  A    between atoms: _362  and  _363
REMARK  150  A    between atoms: _362  and  _365
REMARK  151  A    between atoms: _365  and  _366
REMARK  152  A    between atoms: _369  and  _371
REMARK  153  A    between atoms: _371  and  _372
REMARK  154  A    between atoms: _371  and  _374
REMARK  155  A    between atoms: _374  and  _375
REMARK  156  A    between atoms: _378  and  _380
REMARK  157  A    between atoms: _380  and  _381
REMARK  158  A    between atoms: _380  and  _383
REMARK  159  A    between atoms: _383  and  _384
REMARK  160  A    between atoms: _386  and  _388
REMARK  161  A    between atoms: _388  and  _389
REMARK  162  A    between atoms: _388  and  _391
REMARK  163  A    between atoms: _391  and  _392
REMARK  164  A    between atoms: _395  and  _397
REMARK  165  A    between atoms: _397  and  _398
REMARK  166  A    between atoms: _397  and  _400
REMARK  167  A    between atoms: _400  and  _401
REMARK  168  A    between atoms: _401  and  _402
REMARK  169  A    between atoms: _402  and  _403
REMARK  170  A    between atoms: _403  and  _404
REMARK  171  A    between atoms: _408  and  _410
REMARK  172  A    between atoms: _410  and  _411
REMARK  173  A    between atoms: _410  and  _413
REMARK  174  A    between atoms: _413  and  _414
REMARK  175  A    between atoms: _417  and  _419
REMARK  176  A    between atoms: _419  and  _420
REMARK  177  A    between atoms: _419  and  _422
REMARK  178  A    between atoms: _425  and  _427
REMARK  179  A    between atoms: _427  and  _428
REMARK  180  A    between atoms: _430  and  _432
REMARK  181  A    between atoms: _432  and  _433
REMARK  182  A    between atoms: _435  and  _437
REMARK  183  A    between atoms: _437  and  _438
REMARK  184  A    between atoms: _437  and  _440
REMARK  185  A    between atoms: _440  and  _441
REMARK  186  A    between atoms: _444  and  _446
REMARK  187  A    between atoms: _446  and  _447
REMARK  188  A    between atoms: _449  and  _451
REMARK  189  A    between atoms: _451  and  _452
REMARK  190  A    between atoms: _454  and  _456
REMARK  191  A    between atoms: _456  and  _457
REMARK  192  A    between atoms: _456  and  _459
REMARK  193  A    between atoms: _459  and  _460
REMARK  194  A    between atoms: _466  and  _468
REMARK  195  A    between atoms: _468  and  _469
REMARK  196  A    between atoms: _468  and  _471
REMARK  197  A    between atoms: _471  and  _472
REMARK  198  A    between atoms: _475  and  _477
REMARK  199  A    between atoms: _477  and  _478
REMARK  200  A    between atoms: _477  and  _480
REMARK  201  A    between atoms: _480  and  _481
REMARK  202  A    between atoms: _484  and  _486
REMARK  203  A    between atoms: _486  and  _487
REMARK  204  A    between atoms: _486  and  _489
REMARK  205  A    between atoms: _489  and  _490
REMARK  206  A    between atoms: _490  and  _491
REMARK  207  A    between atoms: _493  and  _495
REMARK  208  A    between atoms: _495  and  _496
REMARK  209  A    between atoms: _495  and  _498
REMARK  210  A    between atoms: _498  and  _499
REMARK  211  A    between atoms: _503  and  _504
REMARK  212  A    between atoms: _509  and  _511
REMARK  213  A    between atoms: _511  and  _512
REMARK  214  A    between atoms: _511  and  _514
REMARK  215  A    between atoms: _514  and  _515
REMARK  216  A    between atoms: _518  and  _520
REMARK  217  A    between atoms: _520  and  _521
REMARK  218  A    between atoms: _520  and  _523
REMARK  219  A    between atoms: _523  and  _524
REMARK  220  A    between atoms: _529  and  _531
REMARK  221  A    between atoms: _531  and  _532
REMARK  222  A    between atoms: _531  and  _534
REMARK  223  A    between atoms: _534  and  _535
REMARK  224  A    between atoms: _538  and  _540
REMARK  225  A    between atoms: _540  and  _541
REMARK  226  A    between atoms: _540  and  _543
REMARK  227  A    between atoms: _543  and  _544
REMARK  228  A    between atoms: _550  and  _552
REMARK  229  A    between atoms: _552  and  _553
REMARK  230  A    between atoms: _555  and  _557
REMARK  231  A    between atoms: _557  and  _558
REMARK  232  A    between atoms: _557  and  _560
REMARK  233  A    between atoms: _560  and  _561
REMARK  234  A    between atoms: _561  and  _562
REMARK  235  A    between atoms: _562  and  _563
REMARK  236  A    between atoms: _572  and  _574
REMARK  237  A    between atoms: _574  and  _575
REMARK  238  A    between atoms: _574  and  _577
REMARK  239  A    between atoms: _577  and  _578
REMARK                            x       y       z     vdW  Elec       q    Type
REMARK                         _______ _______ _______ _____ _____    ______ ____
ROOT
ATOM      1  CA  ALA A   6       7.831   0.646   1.897  0.00  0.00    +0.149 C 
ATOM      2  CB  ALA A   6       7.384   1.930   2.538  0.00  0.00    +0.031 C 
ENDROOT
BRANCH   1   3
ATOM      3  C   ALA A   6       6.891   0.285   0.767  0.00  0.00    +0.241 C 
ATOM      4  N   ASP A   7       6.124  -0.788   0.956  0.00  0.00    -0.297 N 
ATOM      5  H   ASP A   7       6.307  -1.400   1.777  0.00  0.00    +0.150 HD
ATOM      6  O   ALA A   6       6.874   0.959  -0.268  0.00  0.00    -0.273 OA
BRANCH   4   7
ATOM      7  CA  ASP A   7       5.028  -1.134   0.042  0.00  0.00    +0.160 C 
BRANCH   7   8
ATOM      8  C   ASP A   7       3.959  -0.026   0.037  0.00  0.00    +0.241 C 
ATOM      9  N   ASP A   8       3.580   0.375   1.241  0.00  0.00    -0.297 N 
ATOM     10  H   ASP A   8       4.138   0.072   2.065  0.00  0.00    +0.150 HD
ATOM     11  O   ASP A   7       3.510   0.452  -1.018  0.00  0.00    -0.273 OA
BRANCH   9  12
ATOM     12  CA  ASP A   8       2.431   1.210   1.459  0.00  0.00    +0.160 C 
BRANCH  12  13
ATOM     13  C   ASP A   8       2.903   2.554   2.033  0.00  0.00    +0.241 C 
ATOM     14  N   SER A   9       1.958   3.450   2.344  0.00  0.00    -0.295 N 
ATOM     15  H   SER A   9       0.962   3.180   2.214  0.00  0.00    +0.150 HD
ATOM     16  O   ASP A   8       4.108   2.766   2.178  0.00  0.00    -0.273 OA
BRANCH  14  17
ATOM     17  CA  SER A   9       2.251   4.791   2.857  0.00  0.00    +0.178 C 
BRANCH  17  18
ATOM     18  C   SER A   9       1.589   4.988   4.209  0.00  0.00    +0.243 C 
ATOM     19  N   ILE A  10       2.344   5.524   5.169  0.00  0.00    -0.297 N 
ATOM     20  H   ILE A  10       3.332   5.769   4.956  0.00  0.00    +0.150 HD
ATOM     21  O   SER A   9       0.411   4.651   4.377  0.00  0.00    -0.273 OA
BRANCH  19  22
ATOM     22  CA  ILE A  10       1.825   5.778   6.511  0.00  0.00    +0.149 C 
BRANCH  22  23
ATOM     23  C   ILE A  10       2.167   7.189   6.949  0.00  0.00    +0.241 C 
ATOM     24  N   VAL A  11       1.140   7.986   7.239  0.00  0.00    -0.298 N 
ATOM     25  H   VAL A  11       0.177   7.618   7.104  0.00  0.00    +0.150 HD
ATOM     26  O   ILE A  10       3.330   7.543   7.002  0.00  0.00    -0.273 OA
BRANCH  24  27
ATOM     27  CA  VAL A  11       1.299   9.356   7.739  0.00  0.00    +0.137 C 
BRANCH  27  28
ATOM     28  CB  VAL A  11       0.604  10.378   6.773  0.00  0.00    +0.026 C 
ATOM     29  CG2 VAL A  11       0.495  11.750   7.386  0.00  0.00    +0.002 C 
ATOM     30  CG1 VAL A  11       1.404  10.493   5.513  0.00  0.00    +0.002 C 
ENDBRANCH  27  28
BRANCH  27  31
ATOM     31  C   VAL A  11       0.734   9.460   9.163  0.00  0.00    +0.227 C 
ATOM     32  O   VAL A  11      -0.345   8.951   9.454  0.00  0.00    -0.286 OA
ENDBRANCH  27  31
ENDBRANCH  24  27
ENDBRANCH  22  23
BRANCH  22  33
ATOM     33  CB  ILE A  10       2.383   4.783   7.581  0.00  0.00    +0.027 C 
ATOM     34  CG2 ILE A  10       1.392   4.675   8.757  0.00  0.00    +0.002 C 
BRANCH  33  35
ATOM     35  CG1 ILE A  10       2.587   3.385   6.979  0.00  0.00    +0.002 C 
ATOM     36  CD1 ILE A  10       2.748   2.242   8.014  0.00  0.00    +0.000 C 
ENDBRANCH  33  35
ENDBRANCH  22  33
ENDBRANCH  19  22
ENDBRANCH  17  18
BRANCH  17  37
ATOM     37  CB  SER A   9       1.719   5.856   1.904  0.00  0.00    +0.166 C 
BRANCH  37  38
ATOM     38  OG  SER A   9       2.281   5.701   0.619  0.00  0.00    -0.380 OA
ATOM     39  H   SER A   9       2.047   4.807   0.263  0.00  0.00    +0.211 HD
ENDBRANCH  37  38
ENDBRANCH  17  37
ENDBRANCH  14  17
ENDBRANCH  12  13
BRANCH  12  40
ATOM     40  CB  ASP A   8       1.492   0.488   2.422  0.00  0.00    +0.143 C 
BRANCH  40  41
ATOM     41  CG  ASP A   8       1.113  -0.906   1.929  0.00  0.00    +0.367 C 
ATOM     42  OD2 ASP A   8       1.295  -1.888   2.681  0.00  0.00    -0.246 OA
ATOM     43  OD1 ASP A   8       0.631  -1.027   0.784  0.00  0.00    -0.246 OA
ENDBRANCH  40  41
ENDBRANCH  12  40
ENDBRANCH   9  12
ENDBRANCH   7   8
BRANCH   7  44
ATOM     44  CB  ASP A   7       4.381  -2.443   0.496  0.00  0.00    +0.143 C 
BRANCH  44  45
ATOM     45  CG  ASP A   7       5.340  -3.616   0.463  0.00  0.00    +0.367 C 
ATOM     46  OD2 ASP A   7       5.265  -4.470   1.373  0.00  0.00    -0.246 OA
ATOM     47  OD1 ASP A   7       6.123  -3.728  -0.500  0.00  0.00    -0.246 OA
ENDBRANCH  44  45
ENDBRANCH   7  44
ENDBRANCH   4   7
ENDBRANCH   1   3
BRANCH   1  50
ATOM     48  C   GLY A   5      10.028  -0.247   1.389  0.00  0.00    +0.243 C 
ATOM     49  O   GLY A   5       9.744  -1.297   1.946  0.00  0.00    -0.273 OA
ATOM     50  N   ALA A   6       9.187   0.781   1.366  0.00  0.00    -0.297 N 
ATOM     51  H   ALA A   6       9.496   1.690   0.967  0.00  0.00    +0.150 HD
BRANCH  48  52
ATOM     52  CA  GLY A   5      11.375  -0.076   0.711  0.00  0.00    +0.176 C 
BRANCH  52  54
ATOM     53  C   THR A   4      11.179   1.199  -1.337  0.00  0.00    +0.243 C 
ATOM     54  N   GLY A   5      11.491   1.159  -0.045  0.00  0.00    -0.295 N 
ATOM     55  H   GLY A   5      11.822   2.023   0.430  0.00  0.00    +0.150 HD
ATOM     56  O   THR A   4      10.820   0.206  -1.960  0.00  0.00    -0.273 OA
BRANCH  53  57
ATOM     57  CA  THR A   4      11.304   2.547  -2.042  0.00  0.00    +0.176 C 
BRANCH  57  60
ATOM     58  C   ASP A   3      10.392   4.047  -0.354  0.00  0.00    +0.241 C 
ATOM     59  O   ASP A   3       9.344   3.402  -0.303  0.00  0.00    -0.273 OA
ATOM     60  N   THR A   4      11.404   3.688  -1.138  0.00  0.00    -0.295 N 
ATOM     61  H   THR A   4      12.289   4.234  -1.106  0.00  0.00    +0.150 HD
BRANCH  58  62
ATOM     62  CA  ASP A   3      10.612   5.271   0.551  0.00  0.00    +0.160 C 
BRANCH  62  64
ATOM     63  C   LEU A   2      10.847   7.605  -0.153  0.00  0.00    +0.241 C 
ATOM     64  N   ASP A   3      10.090   6.520  -0.003  0.00  0.00    -0.297 N 
ATOM     65  H   ASP A   3       9.091   6.562  -0.290  0.00  0.00    +0.150 HD
ATOM     66  O   LEU A   2      12.083   7.559  -0.237  0.00  0.00    -0.273 OA
BRANCH  63  67
ATOM     67  CA  LEU A   2      10.106   8.943  -0.248  0.00  0.00    +0.149 C 
BRANCH  67  70
ATOM     68  C   LEU A   1       9.661   9.563   2.053  0.00  0.00    +0.238 C 
ATOM     69  O   LEU A   1       8.682   8.784   2.087  0.00  0.00    -0.274 OA
ATOM     70  N   LEU A   2      10.394   9.710   0.956  0.00  0.00    -0.297 N 
ATOM     71  H   LEU A   2      11.186  10.384   0.956  0.00  0.00    +0.150 HD
BRANCH  68  72
ATOM     72  CA  LEU A   1      10.076  10.408   3.288  0.00  0.00    +0.145 C 
BRANCH  72  73
ATOM     73  N   LEU A   1       8.980  11.218   3.838  0.00  0.00    -0.238 NA
ATOM     74  H   LEU A   1       8.456  10.845   4.655  0.00  0.00    +0.142 HD
ENDBRANCH  72  73
BRANCH  72  75
ATOM     75  CB  LEU A   1      10.631   9.491   4.392  0.00  0.00    +0.026 C 
BRANCH  75  76
ATOM     76  CG  LEU A   1      11.873   8.660   4.054  0.00  0.00    +0.002 C 
ATOM     77  CD2 LEU A   1      12.180   7.691   5.179  0.00  0.00    +0.000 C 
ATOM     78  CD1 LEU A   1      13.046   9.597   3.789  0.00  0.00    +0.000 C 
ENDBRANCH  75  76
ENDBRANCH  72  75
ENDBRANCH  68  72
ENDBRANCH  67  70
BRANCH  67  79
ATOM     79  CB  LEU A   2      10.543   9.731  -1.495  0.00  0.00    +0.029 C 
BRANCH  79  80
ATOM     80  CG  LEU A   2       9.662  10.853  -2.088  0.00  0.00    +0.002 C 
ATOM     81  CD2 LEU A   2       8.744  11.482  -1.075  0.00  0.00    +0.000 C 
ATOM     82  CD1 LEU A   2      10.547  11.912  -2.687  0.00  0.00    +0.000 C 
ENDBRANCH  79  80
ENDBRANCH  67  79
ENDBRANCH  63  67
ENDBRANCH  62  64
BRANCH  62  83
ATOM     83  CB  ASP A   3       9.961   5.050   1.923  0.00  0.00    +0.143 C 
BRANCH  83  84
ATOM     84  CG  ASP A   3      10.596   3.907   2.709  0.00  0.00    +0.367 C 
ATOM     85  OD2 ASP A   3      10.378   3.821   3.936  0.00  0.00    -0.246 OA
ATOM     86  OD1 ASP A   3      11.244   3.050   2.088  0.00  0.00    -0.246 OA
ENDBRANCH  83  84
ENDBRANCH  62  83
ENDBRANCH  58  62
ENDBRANCH  57  60
BRANCH  57  87
ATOM     87  CB  THR A   4      12.499   2.487  -3.011  0.00  0.00    +0.137 C 
ATOM     88  CG2 THR A   4      12.470   3.686  -3.966  0.00  0.00    +0.034 C 
BRANCH  87  89
ATOM     89  OG1 THR A   4      13.733   2.473  -2.276  0.00  0.00    -0.382 OA
ATOM     90  HG1 THR A   4      13.754   1.679  -1.684  0.00  0.00    +0.210 HD
ENDBRANCH  87  89
ENDBRANCH  57  87
ENDBRANCH  53  57
ENDBRANCH  52  54
ENDBRANCH  48  52
ENDBRANCH   1  50
TORSDOF 39
REMARK  Name = ../refined-set-2016/1hsh/1hsh_pocket.pdb
REMARK  239 active torsions:
REMARK  status: ('A' for Active; 'I' for Inactive)
REMARK    1  A    between atoms: _1  and  _3
REMARK    2  A    between atoms: _3  and  _4
REMARK    3  A    between atoms: _3  and  _6
REMARK    4  A    between atoms: _6  and  _7
REMARK    5  A    between atoms: _7  and  _8
REMARK    6  A    between atoms: _8  and  _9
REMARK    7  A    between atoms: _18  and  _20
REMARK    8  A    between atoms: _20  and  _21
REMARK    9  A    between atoms: _20  and  _23
REMARK   10  A    between atoms: _23  and  _24
REMARK   11  A    between atoms: _27  and  _29
REMARK   12  A    between atoms: _29  and  _30
REMARK   13  A    between atoms: _29  and  _32
REMARK   14  A    between atoms: _32  and  _33
REMARK   15  A    between atoms: _36  and  _38
REMARK   16  A    between atoms: _38  and  _39
REMARK   17  A    between atoms: _38  and  _41
REMARK   18  A    between atoms: _41  and  _42
REMARK   19  A    between atoms: _45  and  _47
REMARK   20  A    between atoms: _47  and  _48
REMARK   21  A    between atoms: _47  and  _50
REMARK   22  A    between atoms: _50  and  _51
REMARK   23  A    between atoms: _54  and  _56
REMARK   24  A    between atoms: _56  and  _57
REMARK   25  A    between atoms: _59  and  _61
REMARK   26  A    between atoms: _61  and  _62
REMARK   27  A    between atoms: _65  and  _67
REMARK   28  A    between atoms: _67  and  _68
REMARK   29  A    between atoms: _67  and  _70
REMARK   30  A    between atoms: _70  and  _71
REMARK   31  A    between atoms: _74  and  _76
REMARK   32  A    between atoms: _76  and  _77
REMARK   33  A    between atoms: _76  and  _79
REMARK   34  A    between atoms: _79  and  _80
REMARK   35  A    between atoms: _83  and  _85
REMARK   36  A    between atoms: _85  and  _86
REMARK   37  A    between atoms: _85  and  _88
REMARK   38  A    between atoms: _88  and  _89
REMARK   39  A    between atoms: _91  and  _93
REMARK   40  A    between atoms: _93  and  _94
REMARK   41  A    between atoms: _93  and  _96
REMARK   42  A    between atoms: _96  and  _97
REMARK   43  A    between atoms: _100  and  _102
REMARK   44  A    between atoms: _102  and  _103
REMARK   45  A    between atoms: _102  and  _105
REMARK   46  A    between atoms: _108  and  _110
REMARK   47  A    between atoms: _110  and  _111
REMARK   48  A    between atoms: _110  and  _113
REMARK   49  A    between atoms: _113  and  _114
REMARK   50  A    between atoms: _114  and  _115
REMARK   51  A    between atoms: _115  and  _116
REMARK   52  A    between atoms: _116  and  _117
REMARK   53  A    between atoms: _121  and  _123
REMARK   54  A    between atoms: _123  and  _124
REMARK   55  A    between atoms: _123  and  _126
REMARK   56  A    between atoms: _126  and  _127
REMARK   57  A    between atoms: _130  and  _132
REMARK   58  A    between atoms: _132  and  _133
REMARK   59  A    between atoms: _132  and  _135
REMARK   60  A    between atoms: _138  and  _140
REMARK   61  A    between atoms: _140  and  _141
REMARK   62  A    between atoms: _143  and  _145
REMARK   63  A    between atoms: _145  and  _146
REMARK   64  A    between atoms: _148  and  _150
REMARK   65  A    between atoms: _150  and  _151
REMARK   66  A    between atoms: _150  and  _153
REMARK   67  A    between atoms: _153  and  _154
REMARK   68  A    between atoms: _157  and  _159
REMARK   69  A    between atoms: _159  and  _160
REMARK   70  A    between atoms: _162  and  _164
REMARK   71  A    between atoms: _164  and  _165
REMARK   72  A    between atoms: _167  and  _169
REMARK   73  A    between atoms: _169  and  _170
REMARK   74  A    between atoms: _169  and  _172
REMARK   75  A    between atoms: _172  and  _173
REMARK   76  A    between atoms: _179  and  _181
REMARK   77  A    between atoms: _181  and  _182
REMARK   78  A    between atoms: _181  and  _184
REMARK   79  A    between atoms: _184  and  _185
REMARK   80  A    between atoms: _188  and  _190
REMARK   81  A    between atoms: _190  and  _191
REMARK   82  A    between atoms: _190  and  _193
REMARK   83  A    between atoms: _193  and  _194
REMARK   84  A    between atoms: _197  and  _199
REMARK   85  A    between atoms: _199  and  _200
REMARK   86  A    between atoms: _199  and  _202
REMARK   87  A    between atoms: _202  and  _203
REMARK   88  A    between atoms: _203  and  _204
REMARK   89  A    between atoms: _206  and  _208
REMARK   90  A    between atoms: _208  and  _209
REMARK   91  A    between atoms: _208  and  _211
REMARK   92  A    between atoms: _211  and  _212
REMARK   93  A    between atoms: _216  and  _217
REMARK   94  A    between atoms: _222  and  _224
REMARK   95  A    between atoms: _224  and  _225
REMARK   96  A    between atoms: _224  and  _227
REMARK   97  A    between atoms: _227  and  _228
REMARK   98  A    between atoms: _231  and  _233
REMARK   99  A    between atoms: _233  and  _234
REMARK  100  A    between atoms: _233  and  _236
REMARK  101  A    between atoms: _236  and  _237
REMARK  102  A    between atoms: _242  and  _244
REMARK  103  A    between atoms: _244  and  _245
REMARK  104  A    between atoms: _244  and  _247
REMARK  105  A    between atoms: _247  and  _248
REMARK  106  A    between atoms: _251  and  _253
REMARK  107  A    between atoms: _253  and  _254
REMARK  108  A    between atoms: _253  and  _256
REMARK  109  A    between atoms: _256  and  _257
REMARK  110  A    between atoms: _263  and  _265
REMARK  111  A    between atoms: _265  and  _266
REMARK  112  A    between atoms: _268  and  _270
REMARK  113  A    between atoms: _270  and  _271
REMARK  114  A    between atoms: _270  and  _273
REMARK  115  A    between atoms: _273  and  _274
REMARK  116  A    between atoms: _274  and  _275
REMARK  117  A    between atoms: _275  and  _276
REMARK  118  A    between atoms: _285  and  _287
REMARK  119  A    between atoms: _287  and  _288
REMARK  120  A    between atoms: _287  and  _290
REMARK  121  A    between atoms: _290  and  _291
REMARK  122  A    between atoms: _296  and  _298
REMARK  123  A    between atoms: _298  and  _299
REMARK  124  A    between atoms: _298  and  _301
REMARK  125  A    between atoms: _301  and  _302
REMARK  126  A    between atoms: _302  and  _303
REMARK  127  A    between atoms: _303  and  _304
REMARK  128  A    between atoms: _313  and  _315
REMARK  129  A    between atoms: _315  and  _316
REMARK  130  A    between atoms: _315  and  _318
REMARK  131  A    between atoms: _318  and  _319
REMARK  132  A    between atoms: _322  and  _324
REMARK  133  A    between atoms: _324  and  _325
REMARK  134  A    between atoms: _324  and  _327
REMARK  135  A    between atoms: _327  and  _328
REMARK  136  A    between atoms: _331  and  _333
REMARK  137  A    between atoms: _333  and  _334
REMARK  138  A    between atoms: _333  and  _336
REMARK  139  A    between atoms: _336  and  _337
REMARK  140  A    between atoms: _340  and  _342
REMARK  141  A    between atoms: _342  and  _343
REMARK  142  A    between atoms: _342  and  _345
REMARK  143  A    between atoms: _345  and  _346
REMARK  144  A    between atoms: _349  and  _351
REMARK  145  A    between atoms: _351  and  _352
REMARK  146  A    between atoms: _354  and  _356
REMARK  147  A    between atoms: _356  and  _357
REMARK  148  A    between atoms: _360  and  _362
REMARK  149  A    between atoms: _362  and  _363
REMARK  150  A    between atoms: _362  and  _365
REMARK  151  A    between atoms: _365  and  _366
REMARK  152  A    between atoms: _369  and  _371
REMARK  153  A    between atoms: _371  and  _372
REMARK  154  A    between atoms: _371  and  _374
REMARK  155  A    between atoms: _374  and  _375
REMARK  156  A    between atoms: _378  and  _380
REMARK  157  A    between atoms: _380  and  _381
REMARK  158  A    between atoms: _380  and  _383
REMARK  159  A    between atoms: _383  and  _384
REMARK  160  A    between atoms: _386  and  _388
REMARK  161  A    between atoms: _388  and  _389
REMARK  162  A    between atoms: _388  and  _391
REMARK  163  A    between atoms: _391  and  _392
REMARK  164  A    between atoms: _395  and  _397
REMARK  165  A    between atoms: _397  and  _398
REMARK  166  A    between atoms: _397  and  _400
REMARK  167  A    between atoms: _400  and  _401
REMARK  168  A    between atoms: _401  and  _402
REMARK  169  A    between atoms: _402  and  _403
REMARK  170  A    between atoms: _403  and  _404
REMARK  171  A    between atoms: _408  and  _410
REMARK  172  A    between atoms: _410  and  _411
REMARK  173  A    between atoms: _410  and  _413
REMARK  174  A    between atoms: _413  and  _414
REMARK  175  A    between atoms: _417  and  _419
REMARK  176  A    between atoms: _419  and  _420
REMARK  177  A    between atoms: _419  and  _422
REMARK  178  A    between atoms: _425  and  _427
REMARK  179  A    between atoms: _427  and  _428
REMARK  180  A    between atoms: _430  and  _432
REMARK  181  A    between atoms: _432  and  _433
REMARK  182  A    between atoms: _435  and  _437
REMARK  183  A    between atoms: _437  and  _438
REMARK  184  A    between atoms: _437  and  _440
REMARK  185  A    between atoms: _440  and  _441
REMARK  186  A    between atoms: _444  and  _446
REMARK  187  A    between atoms: _446  and  _447
REMARK  188  A    between atoms: _449  and  _451
REMARK  189  A    between atoms: _451  and  _452
REMARK  190  A    between atoms: _454  and  _456
REMARK  191  A    between atoms: _456  and  _457
REMARK  192  A    between atoms: _456  and  _459
REMARK  193  A    between atoms: _459  and  _460
REMARK  194  A    between atoms: _466  and  _468
REMARK  195  A    between atoms: _468  and  _469
REMARK  196  A    between atoms: _468  and  _471
REMARK  197  A    between atoms: _471  and  _472
REMARK  198  A    between atoms: _475  and  _477
REMARK  199  A    between atoms: _477  and  _478
REMARK  200  A    between atoms: _477  and  _480
REMARK  201  A    between atoms: _480  and  _481
REMARK  202  A    between atoms: _484  and  _486
REMARK  203  A    between atoms: _486  and  _487
REMARK  204  A    between atoms: _486  and  _489
REMARK  205  A    between atoms: _489  and  _490
REMARK  206  A    between atoms: _490  and  _491
REMARK  207  A    between atoms: _493  and  _495
REMARK  208  A    between atoms: _495  and  _496
REMARK  209  A    between atoms: _495  and  _498
REMARK  210  A    between atoms: _498  and  _499
REMARK  211  A    between atoms: _503  and  _504
REMARK  212  A    between atoms: _509  and  _511
REMARK  213  A    between atoms: _511  and  _512
REMARK  214  A    between atoms: _511  and  _514
REMARK  215  A    between atoms: _514  and  _515
REMARK  216  A    between atoms: _518  and  _520
REMARK  217  A    between atoms: _520  and  _521
REMARK  218  A    between atoms: _520  and  _523
REMARK  219  A    between atoms: _523  and  _524
REMARK  220  A    between atoms: _529  and  _531
REMARK  221  A    between atoms: _531  and  _532
REMARK  222  A    between atoms: _531  and  _534
REMARK  223  A    between atoms: _534  and  _535
REMARK  224  A    between atoms: _538  and  _540
REMARK  225  A    between atoms: _540  and  _541
REMARK  226  A    between atoms: _540  and  _543
REMARK  227  A    between atoms: _543  and  _544
REMARK  228  A    between atoms: _550  and  _552
REMARK  229  A    between atoms: _552  and  _553
REMARK  230  A    between atoms: _555  and  _557
REMARK  231  A    between atoms: _557  and  _558
REMARK  232  A    between atoms: _557  and  _560
REMARK  233  A    between atoms: _560  and  _561
REMARK  234  A    between atoms: _561  and  _562
REMARK  235  A    between atoms: _562  and  _563
REMARK  236  A    between atoms: _572  and  _574
REMARK  237  A    between atoms: _574  and  _575
REMARK  238  A    between atoms: _574  and  _577
REMARK  239  A    between atoms: _577  and  _578
REMARK                            x       y       z     vdW  Elec       q    Type
REMARK                         _______ _______ _______ _____ _____    ______ ____
ROOT
ATOM      1  C   GLY A   5       9.356  -3.974  10.416  0.00  0.00    +0.243 C 
ATOM      2  O   GLY A   5       9.181  -5.126  10.806  0.00  0.00    -0.273 OA
ATOM      3  N   ILE A   6      10.518  -3.337  10.548  0.00  0.00    -0.297 N 
ATOM      4  H   ILE A   6      10.662  -2.434  10.052  0.00  0.00    +0.150 HD
ENDROOT
BRANCH   3   5
ATOM      5  CA  ILE A   6      11.597  -3.878  11.375  0.00  0.00    +0.149 C 
BRANCH   5   6
ATOM      6  C   ILE A   6      11.236  -3.726  12.858  0.00  0.00    +0.241 C 
ATOM      7  N   GLY A   7      11.487  -4.784  13.616  0.00  0.00    -0.295 N 
ATOM      8  H   GLY A   7      11.898  -5.639  13.191  0.00  0.00    +0.150 HD
ATOM      9  O   ILE A   6      10.699  -2.697  13.291  0.00  0.00    -0.273 OA
BRANCH   7  10
ATOM     10  CA  GLY A   7      11.192  -4.755  15.029  0.00  0.00    +0.176 C 
BRANCH  10  11
ATOM     11  C   GLY A   7       9.719  -4.640  15.374  0.00  0.00    +0.243 C 
ATOM     12  O   GLY A   7       9.378  -3.949  16.326  0.00  0.00    -0.273 OA
ATOM     13  N   GLY A   8       8.837  -5.292  14.618  0.00  0.00    -0.295 N 
ATOM     14  H   GLY A   8       9.112  -5.639  13.677  0.00  0.00    +0.150 HD
BRANCH  13  15
ATOM     15  CA  GLY A   8       7.487  -5.517  15.113  0.00  0.00    +0.176 C 
BRANCH  15  16
ATOM     16  C   GLY A   8       6.400  -5.174  14.134  0.00  0.00    +0.243 C 
ATOM     17  N   PHE A   9       5.205  -4.860  14.653  0.00  0.00    -0.297 N 
ATOM     18  H   PHE A   9       5.140  -4.796  15.689  0.00  0.00    +0.150 HD
ATOM     19  O   GLY A   8       6.658  -5.206  12.941  0.00  0.00    -0.273 OA
BRANCH  17  20
ATOM     20  CA  PHE A   9       3.965  -4.595  13.879  0.00  0.00    +0.153 C 
BRANCH  20  21
ATOM     21  C   PHE A   9       3.257  -3.356  14.425  0.00  0.00    +0.241 C 
ATOM     22  O   PHE A   9       3.395  -3.011  15.601  0.00  0.00    -0.273 OA
ATOM     23  N   ILE A  10       2.463  -2.716  13.582  0.00  0.00    -0.298 N 
ATOM     24  H   ILE A  10       2.320  -3.099  12.626  0.00  0.00    +0.150 HD
BRANCH  23  25
ATOM     25  CA  ILE A  10       1.788  -1.490  13.966  0.00  0.00    +0.137 C 
BRANCH  25  26
ATOM     26  C   ILE A  10       0.367  -1.512  13.404  0.00  0.00    +0.227 C 
ATOM     27  O   ILE A  10       0.120  -2.019  12.307  0.00  0.00    -0.286 OA
ENDBRANCH  25  26
BRANCH  25  28
ATOM     28  CB  ILE A  10       2.592  -0.242  13.468  0.00  0.00    +0.026 C 
ATOM     29  CG2 ILE A  10       3.021  -0.418  12.016  0.00  0.00    +0.002 C 
BRANCH  28  30
ATOM     30  CG1 ILE A  10       1.784   1.046  13.638  0.00  0.00    +0.002 C 
ATOM     31  CD1 ILE A  10       2.477   2.277  13.075  0.00  0.00    +0.000 C 
ENDBRANCH  28  30
ENDBRANCH  25  28
ENDBRANCH  23  25
ENDBRANCH  20  21
BRANCH  20  32
ATOM     32  CB  PHE A   9       2.956  -5.760  13.969  0.00  0.00    +0.055 C 
BRANCH  32  33
ATOM     33  CG  PHE A   9       3.469  -7.060  13.423  0.00  0.00    -0.020 A 
ATOM     34  CD2 PHE A   9       3.955  -8.041  14.291  0.00  0.00    -0.004 A 
ATOM     35  CE2 PHE A   9       4.558  -9.198  13.790  0.00  0.00    -0.000 A 
ATOM     36  CZ  PHE A   9       4.673  -9.389  12.406  0.00  0.00    -0.000 A 
ATOM     37  CE1 PHE A   9       4.176  -8.429  11.534  0.00  0.00    -0.000 A 
ATOM     38  CD1 PHE A   9       3.569  -7.268  12.047  0.00  0.00    -0.004 A 
ENDBRANCH  32  33
ENDBRANCH  20  32
ENDBRANCH  17  20
ENDBRANCH  15  16
ENDBRANCH  13  15
ENDBRANCH  10  11
ENDBRANCH   7  10
ENDBRANCH   5   6
BRANCH   5  39
ATOM     39  CB  ILE A   6      12.970  -3.178  11.065  0.00  0.00    +0.027 C 
ATOM     40  CG2 ILE A   6      14.064  -3.716  11.969  0.00  0.00    +0.002 C 
BRANCH  39  41
ATOM     41  CG1 ILE A   6      13.368  -3.403   9.608  0.00  0.00    +0.002 C 
ATOM     42  CD1 ILE A   6      13.654  -4.825   9.275  0.00  0.00    +0.000 C 
ENDBRANCH  39  41
ENDBRANCH   5  39
ENDBRANCH   3   5
BRANCH   1  43
ATOM     43  CA  GLY A   5       8.239  -3.239   9.702  0.00  0.00    +0.176 C 
BRANCH  43  45
ATOM     44  C   GLY A   4       6.188  -4.359   9.052  0.00  0.00    +0.243 C 
ATOM     45  N   GLY A   5       6.954  -3.839  10.009  0.00  0.00    -0.295 N 
ATOM     46  H   GLY A   5       6.625  -3.863  10.995  0.00  0.00    +0.150 HD
ATOM     47  O   GLY A   4       6.408  -4.190   7.848  0.00  0.00    -0.273 OA
BRANCH  44  48
ATOM     48  CA  GLY A   4       4.959  -5.129   9.514  0.00  0.00    +0.176 C 
BRANCH  48  51
ATOM     49  C   VAL A   3       2.927  -3.837   9.725  0.00  0.00    +0.241 C 
ATOM     50  O   VAL A   3       3.135  -3.606  10.911  0.00  0.00    -0.273 OA
ATOM     51  N   GLY A   4       3.722  -4.594   8.981  0.00  0.00    -0.295 N 
ATOM     52  H   GLY A   4       3.453  -4.807   7.999  0.00  0.00    +0.150 HD
BRANCH  49  53
ATOM     53  CA  VAL A   3       1.681  -3.296   9.044  0.00  0.00    +0.149 C 
BRANCH  53  55
ATOM     54  C   ILE A   2      -0.560  -4.204   9.515  0.00  0.00    +0.241 C 
ATOM     55  N   VAL A   3       0.517  -3.526   9.916  0.00  0.00    -0.297 N 
ATOM     56  H   VAL A   3       0.535  -3.145  10.883  0.00  0.00    +0.150 HD
ATOM     57  O   ILE A   2      -0.627  -4.778   8.429  0.00  0.00    -0.273 OA
BRANCH  54  58
ATOM     58  CA  ILE A   2      -1.775  -4.175  10.440  0.00  0.00    +0.148 C 
BRANCH  58  61
ATOM     59  C   LYS A   1      -3.733  -2.821   9.919  0.00  0.00    +0.238 C 
ATOM     60  O   LYS A   1      -3.653  -2.170  10.955  0.00  0.00    -0.274 OA
ATOM     61  N   ILE A   2      -2.887  -3.782   9.593  0.00  0.00    -0.297 N 
ATOM     62  H   ILE A   2      -3.024  -4.279   8.690  0.00  0.00    +0.150 HD
BRANCH  59  63
ATOM     63  CA  LYS A   1      -4.870  -2.599   8.947  0.00  0.00    +0.145 C 
BRANCH  63  64
ATOM     64  N   LYS A   1      -6.005  -2.119   9.703  0.00  0.00    -0.238 NA
ATOM     65  H   LYS A   1      -5.831  -1.583  10.577  0.00  0.00    +0.142 HD
ENDBRANCH  63  64
BRANCH  63  66
ATOM     66  CB  LYS A   1      -4.469  -1.580   7.878  0.00  0.00    +0.026 C 
BRANCH  66  67
ATOM     67  CG  LYS A   1      -4.826  -2.020   6.478  0.00  0.00    -0.000 C 
BRANCH  67  68
ATOM     68  CD  LYS A   1      -3.955  -3.186   6.060  0.00  0.00    -0.024 C 
BRANCH  68  69
ATOM     69  CE  LYS A   1      -2.900  -2.751   5.061  0.00  0.00    -0.086 C 
BRANCH  69  70
ATOM     70  NZ  LYS A   1      -3.465  -2.620   3.679  0.00  0.00    +0.380 N 
ATOM     71  HZ1 LYS A   1      -4.225  -1.911   3.682  0.00  0.00    -0.089 HD
ATOM     72  HZ2 LYS A   1      -3.847  -3.538   3.374  0.00  0.00    -0.089 HD
ATOM     73  HZ3 LYS A   1      -2.713  -2.321   3.025  0.00  0.00    -0.089 HD
ENDBRANCH  69  70
ENDBRANCH  68  69
ENDBRANCH  67  68
ENDBRANCH  66  67
ENDBRANCH  63  66
ENDBRANCH  59  63
ENDBRANCH  58  61
BRANCH  58  74
ATOM     74  CB  ILE A   2      -2.058  -5.568  11.059  0.00  0.00    +0.027 C 
ATOM     75  CG2 ILE A   2      -0.787  -6.174  11.653  0.00  0.00    +0.002 C 
BRANCH  74  76
ATOM     76  CG1 ILE A   2      -3.156  -5.433  12.116  0.00  0.00    +0.002 C 
ATOM     77  CD1 ILE A   2      -3.490  -6.707  12.848  0.00  0.00    +0.000 C 
ENDBRANCH  74  76
ENDBRANCH  58  74
ENDBRANCH  54  58
ENDBRANCH  53  55
BRANCH  53  78
ATOM     78  CB  VAL A   3       1.867  -1.770   8.725  0.00  0.00    +0.027 C 
ATOM     79  CG2 VAL A   3       3.174  -1.507   8.010  0.00  0.00    +0.002 C 
ATOM     80  CG1 VAL A   3       0.728  -1.273   7.867  0.00  0.00    +0.002 C 
ENDBRANCH  53  78
ENDBRANCH  49  53
ENDBRANCH  48  51
ENDBRANCH  44  48
ENDBRANCH  43  45
ENDBRANCH   1  43
TORSDOF 34
REMARK  Name = ../refined-set-2016/1hsh/1hsh_pocket.pdb
REMARK  239 active torsions:
REMARK  status: ('A' for Active; 'I' for Inactive)
REMARK    1  A    between atoms: _1  and  _3
REMARK    2  A    between atoms: _3  and  _4
REMARK    3  A    between atoms: _3  and  _6
REMARK    4  A    between atoms: _6  and  _7
REMARK    5  A    between atoms: _7  and  _8
REMARK    6  A    between atoms: _8  and  _9
REMARK    7  A    between atoms: _18  and  _20
REMARK    8  A    between atoms: _20  and  _21
REMARK    9  A    between atoms: _20  and  _23
REMARK   10  A    between atoms: _23  and  _24
REMARK   11  A    between atoms: _27  and  _29
REMARK   12  A    between atoms: _29  and  _30
REMARK   13  A    between atoms: _29  and  _32
REMARK   14  A    between atoms: _32  and  _33
REMARK   15  A    between atoms: _36  and  _38
REMARK   16  A    between atoms: _38  and  _39
REMARK   17  A    between atoms: _38  and  _41
REMARK   18  A    between atoms: _41  and  _42
REMARK   19  A    between atoms: _45  and  _47
REMARK   20  A    between atoms: _47  and  _48
REMARK   21  A    between atoms: _47  and  _50
REMARK   22  A    between atoms: _50  and  _51
REMARK   23  A    between atoms: _54  and  _56
REMARK   24  A    between atoms: _56  and  _57
REMARK   25  A    between atoms: _59  and  _61
REMARK   26  A    between atoms: _61  and  _62
REMARK   27  A    between atoms: _65  and  _67
REMARK   28  A    between atoms: _67  and  _68
REMARK   29  A    between atoms: _67  and  _70
REMARK   30  A    between atoms: _70  and  _71
REMARK   31  A    between atoms: _74  and  _76
REMARK   32  A    between atoms: _76  and  _77
REMARK   33  A    between atoms: _76  and  _79
REMARK   34  A    between atoms: _79  and  _80
REMARK   35  A    between atoms: _83  and  _85
REMARK   36  A    between atoms: _85  and  _86
REMARK   37  A    between atoms: _85  and  _88
REMARK   38  A    between atoms: _88  and  _89
REMARK   39  A    between atoms: _91  and  _93
REMARK   40  A    between atoms: _93  and  _94
REMARK   41  A    between atoms: _93  and  _96
REMARK   42  A    between atoms: _96  and  _97
REMARK   43  A    between atoms: _100  and  _102
REMARK   44  A    between atoms: _102  and  _103
REMARK   45  A    between atoms: _102  and  _105
REMARK   46  A    between atoms: _108  and  _110
REMARK   47  A    between atoms: _110  and  _111
REMARK   48  A    between atoms: _110  and  _113
REMARK   49  A    between atoms: _113  and  _114
REMARK   50  A    between atoms: _114  and  _115
REMARK   51  A    between atoms: _115  and  _116
REMARK   52  A    between atoms: _116  and  _117
REMARK   53  A    between atoms: _121  and  _123
REMARK   54  A    between atoms: _123  and  _124
REMARK   55  A    between atoms: _123  and  _126
REMARK   56  A    between atoms: _126  and  _127
REMARK   57  A    between atoms: _130  and  _132
REMARK   58  A    between atoms: _132  and  _133
REMARK   59  A    between atoms: _132  and  _135
REMARK   60  A    between atoms: _138  and  _140
REMARK   61  A    between atoms: _140  and  _141
REMARK   62  A    between atoms: _143  and  _145
REMARK   63  A    between atoms: _145  and  _146
REMARK   64  A    between atoms: _148  and  _150
REMARK   65  A    between atoms: _150  and  _151
REMARK   66  A    between atoms: _150  and  _153
REMARK   67  A    between atoms: _153  and  _154
REMARK   68  A    between atoms: _157  and  _159
REMARK   69  A    between atoms: _159  and  _160
REMARK   70  A    between atoms: _162  and  _164
REMARK   71  A    between atoms: _164  and  _165
REMARK   72  A    between atoms: _167  and  _169
REMARK   73  A    between atoms: _169  and  _170
REMARK   74  A    between atoms: _169  and  _172
REMARK   75  A    between atoms: _172  and  _173
REMARK   76  A    between atoms: _179  and  _181
REMARK   77  A    between atoms: _181  and  _182
REMARK   78  A    between atoms: _181  and  _184
REMARK   79  A    between atoms: _184  and  _185
REMARK   80  A    between atoms: _188  and  _190
REMARK   81  A    between atoms: _190  and  _191
REMARK   82  A    between atoms: _190  and  _193
REMARK   83  A    between atoms: _193  and  _194
REMARK   84  A    between atoms: _197  and  _199
REMARK   85  A    between atoms: _199  and  _200
REMARK   86  A    between atoms: _199  and  _202
REMARK   87  A    between atoms: _202  and  _203
REMARK   88  A    between atoms: _203  and  _204
REMARK   89  A    between atoms: _206  and  _208
REMARK   90  A    between atoms: _208  and  _209
REMARK   91  A    between atoms: _208  and  _211
REMARK   92  A    between atoms: _211  and  _212
REMARK   93  A    between atoms: _216  and  _217
REMARK   94  A    between atoms: _222  and  _224
REMARK   95  A    between atoms: _224  and  _225
REMARK   96  A    between atoms: _224  and  _227
REMARK   97  A    between atoms: _227  and  _228
REMARK   98  A    between atoms: _231  and  _233
REMARK   99  A    between atoms: _233  and  _234
REMARK  100  A    between atoms: _233  and  _236
REMARK  101  A    between atoms: _236  and  _237
REMARK  102  A    between atoms: _242  and  _244
REMARK  103  A    between atoms: _244  and  _245
REMARK  104  A    between atoms: _244  and  _247
REMARK  105  A    between atoms: _247  and  _248
REMARK  106  A    between atoms: _251  and  _253
REMARK  107  A    between atoms: _253  and  _254
REMARK  108  A    between atoms: _253  and  _256
REMARK  109  A    between atoms: _256  and  _257
REMARK  110  A    between atoms: _263  and  _265
REMARK  111  A    between atoms: _265  and  _266
REMARK  112  A    between atoms: _268  and  _270
REMARK  113  A    between atoms: _270  and  _271
REMARK  114  A    between atoms: _270  and  _273
REMARK  115  A    between atoms: _273  and  _274
REMARK  116  A    between atoms: _274  and  _275
REMARK  117  A    between atoms: _275  and  _276
REMARK  118  A    between atoms: _285  and  _287
REMARK  119  A    between atoms: _287  and  _288
REMARK  120  A    between atoms: _287  and  _290
REMARK  121  A    between atoms: _290  and  _291
REMARK  122  A    between atoms: _296  and  _298
REMARK  123  A    between atoms: _298  and  _299
REMARK  124  A    between atoms: _298  and  _301
REMARK  125  A    between atoms: _301  and  _302
REMARK  126  A    between atoms: _302  and  _303
REMARK  127  A    between atoms: _303  and  _304
REMARK  128  A    between atoms: _313  and  _315
REMARK  129  A    between atoms: _315  and  _316
REMARK  130  A    between atoms: _315  and  _318
REMARK  131  A    between atoms: _318  and  _319
REMARK  132  A    between atoms: _322  and  _324
REMARK  133  A    between atoms: _324  and  _325
REMARK  134  A    between atoms: _324  and  _327
REMARK  135  A    between atoms: _327  and  _328
REMARK  136  A    between atoms: _331  and  _333
REMARK  137  A    between atoms: _333  and  _334
REMARK  138  A    between atoms: _333  and  _336
REMARK  139  A    between atoms: _336  and  _337
REMARK  140  A    between atoms: _340  and  _342
REMARK  141  A    between atoms: _342  and  _343
REMARK  142  A    between atoms: _342  and  _345
REMARK  143  A    between atoms: _345  and  _346
REMARK  144  A    between atoms: _349  and  _351
REMARK  145  A    between atoms: _351  and  _352
REMARK  146  A    between atoms: _354  and  _356
REMARK  147  A    between atoms: _356  and  _357
REMARK  148  A    between atoms: _360  and  _362
REMARK  149  A    between atoms: _362  and  _363
REMARK  150  A    between atoms: _362  and  _365
REMARK  151  A    between atoms: _365  and  _366
REMARK  152  A    between atoms: _369  and  _371
REMARK  153  A    between atoms: _371  and  _372
REMARK  154  A    between atoms: _371  and  _374
REMARK  155  A    between atoms: _374  and  _375
REMARK  156  A    between atoms: _378  and  _380
REMARK  157  A    between atoms: _380  and  _381
REMARK  158  A    between atoms: _380  and  _383
REMARK  159  A    between atoms: _383  and  _384
REMARK  160  A    between atoms: _386  and  _388
REMARK  161  A    between atoms: _388  and  _389
REMARK  162  A    between atoms: _388  and  _391
REMARK  163  A    between atoms: _391  and  _392
REMARK  164  A    between atoms: _395  and  _397
REMARK  165  A    between atoms: _397  and  _398
REMARK  166  A    between atoms: _397  and  _400
REMARK  167  A    between atoms: _400  and  _401
REMARK  168  A    between atoms: _401  and  _402
REMARK  169  A    between atoms: _402  and  _403
REMARK  170  A    between atoms: _403  and  _404
REMARK  171  A    between atoms: _408  and  _410
REMARK  172  A    between atoms: _410  and  _411
REMARK  173  A    between atoms: _410  and  _413
REMARK  174  A    between atoms: _413  and  _414
REMARK  175  A    between atoms: _417  and  _419
REMARK  176  A    between atoms: _419  and  _420
REMARK  177  A    between atoms: _419  and  _422
REMARK  178  A    between atoms: _425  and  _427
REMARK  179  A    between atoms: _427  and  _428
REMARK  180  A    between atoms: _430  and  _432
REMARK  181  A    between atoms: _432  and  _433
REMARK  182  A    between atoms: _435  and  _437
REMARK  183  A    between atoms: _437  and  _438
REMARK  184  A    between atoms: _437  and  _440
REMARK  185  A    between atoms: _440  and  _441
REMARK  186  A    between atoms: _444  and  _446
REMARK  187  A    between atoms: _446  and  _447
REMARK  188  A    between atoms: _449  and  _451
REMARK  189  A    between atoms: _451  and  _452
REMARK  190  A    between atoms: _454  and  _456
REMARK  191  A    between atoms: _456  and  _457
REMARK  192  A    between atoms: _456  and  _459
REMARK  193  A    between atoms: _459  and  _460
REMARK  194  A    between atoms: _466  and  _468
REMARK  195  A    between atoms: _468  and  _469
REMARK  196  A    between atoms: _468  and  _471
REMARK  197  A    between atoms: _471  and  _472
REMARK  198  A    between atoms: _475  and  _477
REMARK  199  A    between atoms: _477  and  _478
REMARK  200  A    between atoms: _477  and  _480
REMARK  201  A    between atoms: _480  and  _481
REMARK  202  A    between atoms: _484  and  _486
REMARK  203  A    between atoms: _486  and  _487
REMARK  204  A    between atoms: _486  and  _489
REMARK  205  A    between atoms: _489  and  _490
REMARK  206  A    between atoms: _490  and  _491
REMARK  207  A    between atoms: _493  and  _495
REMARK  208  A    between atoms: _495  and  _496
REMARK  209  A    between atoms: _495  and  _498
REMARK  210  A    between atoms: _498  and  _499
REMARK  211  A    between atoms: _503  and  _504
REMARK  212  A    between atoms: _509  and  _511
REMARK  213  A    between atoms: _511  and  _512
REMARK  214  A    between atoms: _511  and  _514
REMARK  215  A    between atoms: _514  and  _515
REMARK  216  A    between atoms: _518  and  _520
REMARK  217  A    between atoms: _520  and  _521
REMARK  218  A    between atoms: _520  and  _523
REMARK  219  A    between atoms: _523  and  _524
REMARK  220  A    between atoms: _529  and  _531
REMARK  221  A    between atoms: _531  and  _532
REMARK  222  A    between atoms: _531  and  _534
REMARK  223  A    between atoms: _534  and  _535
REMARK  224  A    between atoms: _538  and  _540
REMARK  225  A    between atoms: _540  and  _541
REMARK  226  A    between atoms: _540  and  _543
REMARK  227  A    between atoms: _543  and  _544
REMARK  228  A    between atoms: _550  and  _552
REMARK  229  A    between atoms: _552  and  _553
REMARK  230  A    between atoms: _555  and  _557
REMARK  231  A    between atoms: _557  and  _558
REMARK  232  A    between atoms: _557  and  _560
REMARK  233  A    between atoms: _560  and  _561
REMARK  234  A    between atoms: _561  and  _562
REMARK  235  A    between atoms: _562  and  _563
REMARK  236  A    between atoms: _572  and  _574
REMARK  237  A    between atoms: _574  and  _575
REMARK  238  A    between atoms: _574  and  _577
REMARK  239  A    between atoms: _577  and  _578
REMARK                            x       y       z     vdW  Elec       q    Type
REMARK                         _______ _______ _______ _____ _____    ______ ____
ROOT
ATOM      1  CA  THR A   1      -2.936   1.637  11.205  0.00  0.00    +0.160 C 
ENDROOT
BRANCH   1   2
ATOM      2  N   THR A   1      -2.578   0.417  11.922  0.00  0.00    -0.237 NA
ATOM      3  H   THR A   1      -2.552  -0.481  11.398  0.00  0.00    +0.142 HD
ENDBRANCH   1   2
BRANCH   1   4
ATOM      4  C   THR A   1      -4.386   1.575  10.739  0.00  0.00    +0.227 C 
ATOM      5  O   THR A   1      -5.057   0.549  10.892  0.00  0.00    -0.287 OA
ENDBRANCH   1   4
BRANCH   1   6
ATOM      6  CB  THR A   1      -2.029   1.851   9.979  0.00  0.00    +0.134 C 
ATOM      7  CG2 THR A   1      -0.577   1.699  10.366  0.00  0.00    +0.034 C 
BRANCH   6   8
ATOM      8  OG1 THR A   1      -2.348   0.888   8.960  0.00  0.00    -0.383 OA
ATOM      9  HG1 THR A   1      -1.761   1.032   8.176  0.00  0.00    +0.210 HD
ENDBRANCH   6   8
ENDBRANCH   1   6
TORSDOF 4
REMARK  Name = ../refined-set-2016/1hsh/1hsh_pocket.pdb
REMARK  239 active torsions:
REMARK  status: ('A' for Active; 'I' for Inactive)
REMARK    1  A    between atoms: _1  and  _3
REMARK    2  A    between atoms: _3  and  _4
REMARK    3  A    between atoms: _3  and  _6
REMARK    4  A    between atoms: _6  and  _7
REMARK    5  A    between atoms: _7  and  _8
REMARK    6  A    between atoms: _8  and  _9
REMARK    7  A    between atoms: _18  and  _20
REMARK    8  A    between atoms: _20  and  _21
REMARK    9  A    between atoms: _20  and  _23
REMARK   10  A    between atoms: _23  and  _24
REMARK   11  A    between atoms: _27  and  _29
REMARK   12  A    between atoms: _29  and  _30
REMARK   13  A    between atoms: _29  and  _32
REMARK   14  A    between atoms: _32  and  _33
REMARK   15  A    between atoms: _36  and  _38
REMARK   16  A    between atoms: _38  and  _39
REMARK   17  A    between atoms: _38  and  _41
REMARK   18  A    between atoms: _41  and  _42
REMARK   19  A    between atoms: _45  and  _47
REMARK   20  A    between atoms: _47  and  _48
REMARK   21  A    between atoms: _47  and  _50
REMARK   22  A    between atoms: _50  and  _51
REMARK   23  A    between atoms: _54  and  _56
REMARK   24  A    between atoms: _56  and  _57
REMARK   25  A    between atoms: _59  and  _61
REMARK   26  A    between atoms: _61  and  _62
REMARK   27  A    between atoms: _65  and  _67
REMARK   28  A    between atoms: _67  and  _68
REMARK   29  A    between atoms: _67  and  _70
REMARK   30  A    between atoms: _70  and  _71
REMARK   31  A    between atoms: _74  and  _76
REMARK   32  A    between atoms: _76  and  _77
REMARK   33  A    between atoms: _76  and  _79
REMARK   34  A    between atoms: _79  and  _80
REMARK   35  A    between atoms: _83  and  _85
REMARK   36  A    between atoms: _85  and  _86
REMARK   37  A    between atoms: _85  and  _88
REMARK   38  A    between atoms: _88  and  _89
REMARK   39  A    between atoms: _91  and  _93
REMARK   40  A    between atoms: _93  and  _94
REMARK   41  A    between atoms: _93  and  _96
REMARK   42  A    between atoms: _96  and  _97
REMARK   43  A    between atoms: _100  and  _102
REMARK   44  A    between atoms: _102  and  _103
REMARK   45  A    between atoms: _102  and  _105
REMARK   46  A    between atoms: _108  and  _110
REMARK   47  A    between atoms: _110  and  _111
REMARK   48  A    between atoms: _110  and  _113
REMARK   49  A    between atoms: _113  and  _114
REMARK   50  A    between atoms: _114  and  _115
REMARK   51  A    between atoms: _115  and  _116
REMARK   52  A    between atoms: _116  and  _117
REMARK   53  A    between atoms: _121  and  _123
REMARK   54  A    between atoms: _123  and  _124
REMARK   55  A    between atoms: _123  and  _126
REMARK   56  A    between atoms: _126  and  _127
REMARK   57  A    between atoms: _130  and  _132
REMARK   58  A    between atoms: _132  and  _133
REMARK   59  A    between atoms: _132  and  _135
REMARK   60  A    between atoms: _138  and  _140
REMARK   61  A    between atoms: _140  and  _141
REMARK   62  A    between atoms: _143  and  _145
REMARK   63  A    between atoms: _145  and  _146
REMARK   64  A    between atoms: _148  and  _150
REMARK   65  A    between atoms: _150  and  _151
REMARK   66  A    between atoms: _150  and  _153
REMARK   67  A    between atoms: _153  and  _154
REMARK   68  A    between atoms: _157  and  _159
REMARK   69  A    between atoms: _159  and  _160
REMARK   70  A    between atoms: _162  and  _164
REMARK   71  A    between atoms: _164  and  _165
REMARK   72  A    between atoms: _167  and  _169
REMARK   73  A    between atoms: _169  and  _170
REMARK   74  A    between atoms: _169  and  _172
REMARK   75  A    between atoms: _172  and  _173
REMARK   76  A    between atoms: _179  and  _181
REMARK   77  A    between atoms: _181  and  _182
REMARK   78  A    between atoms: _181  and  _184
REMARK   79  A    between atoms: _184  and  _185
REMARK   80  A    between atoms: _188  and  _190
REMARK   81  A    between atoms: _190  and  _191
REMARK   82  A    between atoms: _190  and  _193
REMARK   83  A    between atoms: _193  and  _194
REMARK   84  A    between atoms: _197  and  _199
REMARK   85  A    between atoms: _199  and  _200
REMARK   86  A    between atoms: _199  and  _202
REMARK   87  A    between atoms: _202  and  _203
REMARK   88  A    between atoms: _203  and  _204
REMARK   89  A    between atoms: _206  and  _208
REMARK   90  A    between atoms: _208  and  _209
REMARK   91  A    between atoms: _208  and  _211
REMARK   92  A    between atoms: _211  and  _212
REMARK   93  A    between atoms: _216  and  _217
REMARK   94  A    between atoms: _222  and  _224
REMARK   95  A    between atoms: _224  and  _225
REMARK   96  A    between atoms: _224  and  _227
REMARK   97  A    between atoms: _227  and  _228
REMARK   98  A    between atoms: _231  and  _233
REMARK   99  A    between atoms: _233  and  _234
REMARK  100  A    between atoms: _233  and  _236
REMARK  101  A    between atoms: _236  and  _237
REMARK  102  A    between atoms: _242  and  _244
REMARK  103  A    between atoms: _244  and  _245
REMARK  104  A    between atoms: _244  and  _247
REMARK  105  A    between atoms: _247  and  _248
REMARK  106  A    between atoms: _251  and  _253
REMARK  107  A    between atoms: _253  and  _254
REMARK  108  A    between atoms: _253  and  _256
REMARK  109  A    between atoms: _256  and  _257
REMARK  110  A    between atoms: _263  and  _265
REMARK  111  A    between atoms: _265  and  _266
REMARK  112  A    between atoms: _268  and  _270
REMARK  113  A    between atoms: _270  and  _271
REMARK  114  A    between atoms: _270  and  _273
REMARK  115  A    between atoms: _273  and  _274
REMARK  116  A    between atoms: _274  and  _275
REMARK  117  A    between atoms: _275  and  _276
REMARK  118  A    between atoms: _285  and  _287
REMARK  119  A    between atoms: _287  and  _288
REMARK  120  A    between atoms: _287  and  _290
REMARK  121  A    between atoms: _290  and  _291
REMARK  122  A    between atoms: _296  and  _298
REMARK  123  A    between atoms: _298  and  _299
REMARK  124  A    between atoms: _298  and  _301
REMARK  125  A    between atoms: _301  and  _302
REMARK  126  A    between atoms: _302  and  _303
REMARK  127  A    between atoms: _303  and  _304
REMARK  128  A    between atoms: _313  and  _315
REMARK  129  A    between atoms: _315  and  _316
REMARK  130  A    between atoms: _315  and  _318
REMARK  131  A    between atoms: _318  and  _319
REMARK  132  A    between atoms: _322  and  _324
REMARK  133  A    between atoms: _324  and  _325
REMARK  134  A    between atoms: _324  and  _327
REMARK  135  A    between atoms: _327  and  _328
REMARK  136  A    between atoms: _331  and  _333
REMARK  137  A    between atoms: _333  and  _334
REMARK  138  A    between atoms: _333  and  _336
REMARK  139  A    between atoms: _336  and  _337
REMARK  140  A    between atoms: _340  and  _342
REMARK  141  A    between atoms: _342  and  _343
REMARK  142  A    between atoms: _342  and  _345
REMARK  143  A    between atoms: _345  and  _346
REMARK  144  A    between atoms: _349  and  _351
REMARK  145  A    between atoms: _351  and  _352
REMARK  146  A    between atoms: _354  and  _356
REMARK  147  A    between atoms: _356  and  _357
REMARK  148  A    between atoms: _360  and  _362
REMARK  149  A    between atoms: _362  and  _363
REMARK  150  A    between atoms: _362  and  _365
REMARK  151  A    between atoms: _365  and  _366
REMARK  152  A    between atoms: _369  and  _371
REMARK  153  A    between atoms: _371  and  _372
REMARK  154  A    between atoms: _371  and  _374
REMARK  155  A    between atoms: _374  and  _375
REMARK  156  A    between atoms: _378  and  _380
REMARK  157  A    between atoms: _380  and  _381
REMARK  158  A    between atoms: _380  and  _383
REMARK  159  A    between atoms: _383  and  _384
REMARK  160  A    between atoms: _386  and  _388
REMARK  161  A    between atoms: _388  and  _389
REMARK  162  A    between atoms: _388  and  _391
REMARK  163  A    between atoms: _391  and  _392
REMARK  164  A    between atoms: _395  and  _397
REMARK  165  A    between atoms: _397  and  _398
REMARK  166  A    between atoms: _397  and  _400
REMARK  167  A    between atoms: _400  and  _401
REMARK  168  A    between atoms: _401  and  _402
REMARK  169  A    between atoms: _402  and  _403
REMARK  170  A    between atoms: _403  and  _404
REMARK  171  A    between atoms: _408  and  _410
REMARK  172  A    between atoms: _410  and  _411
REMARK  173  A    between atoms: _410  and  _413
REMARK  174  A    between atoms: _413  and  _414
REMARK  175  A    between atoms: _417  and  _419
REMARK  176  A    between atoms: _419  and  _420
REMARK  177  A    between atoms: _419  and  _422
REMARK  178  A    between atoms: _425  and  _427
REMARK  179  A    between atoms: _427  and  _428
REMARK  180  A    between atoms: _430  and  _432
REMARK  181  A    between atoms: _432  and  _433
REMARK  182  A    between atoms: _435  and  _437
REMARK  183  A    between atoms: _437  and  _438
REMARK  184  A    between atoms: _437  and  _440
REMARK  185  A    between atoms: _440  and  _441
REMARK  186  A    between atoms: _444  and  _446
REMARK  187  A    between atoms: _446  and  _447
REMARK  188  A    between atoms: _449  and  _451
REMARK  189  A    between atoms: _451  and  _452
REMARK  190  A    between atoms: _454  and  _456
REMARK  191  A    between atoms: _456  and  _457
REMARK  192  A    between atoms: _456  and  _459
REMARK  193  A    between atoms: _459  and  _460
REMARK  194  A    between atoms: _466  and  _468
REMARK  195  A    between atoms: _468  and  _469
REMARK  196  A    between atoms: _468  and  _471
REMARK  197  A    between atoms: _471  and  _472
REMARK  198  A    between atoms: _475  and  _477
REMARK  199  A    between atoms: _477  and  _478
REMARK  200  A    between atoms: _477  and  _480
REMARK  201  A    between atoms: _480  and  _481
REMARK  202  A    between atoms: _484  and  _486
REMARK  203  A    between atoms: _486  and  _487
REMARK  204  A    between atoms: _486  and  _489
REMARK  205  A    between atoms: _489  and  _490
REMARK  206  A    between atoms: _490  and  _491
REMARK  207  A    between atoms: _493  and  _495
REMARK  208  A    between atoms: _495  and  _496
REMARK  209  A    between atoms: _495  and  _498
REMARK  210  A    between atoms: _498  and  _499
REMARK  211  A    between atoms: _503  and  _504
REMARK  212  A    between atoms: _509  and  _511
REMARK  213  A    between atoms: _511  and  _512
REMARK  214  A    between atoms: _511  and  _514
REMARK  215  A    between atoms: _514  and  _515
REMARK  216  A    between atoms: _518  and  _520
REMARK  217  A    between atoms: _520  and  _521
REMARK  218  A    between atoms: _520  and  _523
REMARK  219  A    between atoms: _523  and  _524
REMARK  220  A    between atoms: _529  and  _531
REMARK  221  A    between atoms: _531  and  _532
REMARK  222  A    between atoms: _531  and  _534
REMARK  223  A    between atoms: _534  and  _535
REMARK  224  A    between atoms: _538  and  _540
REMARK  225  A    between atoms: _540  and  _541
REMARK  226  A    between atoms: _540  and  _543
REMARK  227  A    between atoms: _543  and  _544
REMARK  228  A    between atoms: _550  and  _552
REMARK  229  A    between atoms: _552  and  _553
REMARK  230  A    between atoms: _555  and  _557
REMARK  231  A    between atoms: _557  and  _558
REMARK  232  A    between atoms: _557  and  _560
REMARK  233  A    between atoms: _560  and  _561
REMARK  234  A    between atoms: _561  and  _562
REMARK  235  A    between atoms: _562  and  _563
REMARK  236  A    between atoms: _572  and  _574
REMARK  237  A    between atoms: _574  and  _575
REMARK  238  A    between atoms: _574  and  _577
REMARK  239  A    between atoms: _577  and  _578
REMARK                            x       y       z     vdW  Elec       q    Type
REMARK                         _______ _______ _______ _____ _____    ______ ____
ROOT
ATOM      1  CA  MET A   1      -2.756   4.770   6.110  0.00  0.00    +0.134 C 
ENDROOT
BRANCH   1   2
ATOM      2  N   MET A   1      -2.392   5.190   4.761  0.00  0.00    -0.239 NA
ATOM      3  H   MET A   1      -1.457   4.937   4.384  0.00  0.00    +0.142 HD
ENDBRANCH   1   2
BRANCH   1   4
ATOM      4  C   MET A   1      -2.415   5.835   7.134  0.00  0.00    +0.224 C 
ATOM      5  O   MET A   1      -1.551   6.687   6.910  0.00  0.00    -0.287 OA
ENDBRANCH   1   4
BRANCH   1   6
ATOM      6  CB  MET A   1      -2.058   3.461   6.482  0.00  0.00    +0.037 C 
BRANCH   6   7
ATOM      7  CG  MET A   1      -2.480   2.275   5.639  0.00  0.00    +0.059 C 
BRANCH   7   8
ATOM      8  SD  MET A   1      -1.489   0.815   5.938  0.00  0.00    -0.139 S 
ATOM      9  CE  MET A   1      -0.065   1.231   5.070  0.00  0.00    +0.069 C 
ENDBRANCH   7   8
ENDBRANCH   6   7
ENDBRANCH   1   6
TORSDOF 5
REMARK  Name = ../refined-set-2016/1hsh/1hsh_pocket.pdb
REMARK  239 active torsions:
REMARK  status: ('A' for Active; 'I' for Inactive)
REMARK    1  A    between atoms: _1  and  _3
REMARK    2  A    between atoms: _3  and  _4
REMARK    3  A    between atoms: _3  and  _6
REMARK    4  A    between atoms: _6  and  _7
REMARK    5  A    between atoms: _7  and  _8
REMARK    6  A    between atoms: _8  and  _9
REMARK    7  A    between atoms: _18  and  _20
REMARK    8  A    between atoms: _20  and  _21
REMARK    9  A    between atoms: _20  and  _23
REMARK   10  A    between atoms: _23  and  _24
REMARK   11  A    between atoms: _27  and  _29
REMARK   12  A    between atoms: _29  and  _30
REMARK   13  A    between atoms: _29  and  _32
REMARK   14  A    between atoms: _32  and  _33
REMARK   15  A    between atoms: _36  and  _38
REMARK   16  A    between atoms: _38  and  _39
REMARK   17  A    between atoms: _38  and  _41
REMARK   18  A    between atoms: _41  and  _42
REMARK   19  A    between atoms: _45  and  _47
REMARK   20  A    between atoms: _47  and  _48
REMARK   21  A    between atoms: _47  and  _50
REMARK   22  A    between atoms: _50  and  _51
REMARK   23  A    between atoms: _54  and  _56
REMARK   24  A    between atoms: _56  and  _57
REMARK   25  A    between atoms: _59  and  _61
REMARK   26  A    between atoms: _61  and  _62
REMARK   27  A    between atoms: _65  and  _67
REMARK   28  A    between atoms: _67  and  _68
REMARK   29  A    between atoms: _67  and  _70
REMARK   30  A    between atoms: _70  and  _71
REMARK   31  A    between atoms: _74  and  _76
REMARK   32  A    between atoms: _76  and  _77
REMARK   33  A    between atoms: _76  and  _79
REMARK   34  A    between atoms: _79  and  _80
REMARK   35  A    between atoms: _83  and  _85
REMARK   36  A    between atoms: _85  and  _86
REMARK   37  A    between atoms: _85  and  _88
REMARK   38  A    between atoms: _88  and  _89
REMARK   39  A    between atoms: _91  and  _93
REMARK   40  A    between atoms: _93  and  _94
REMARK   41  A    between atoms: _93  and  _96
REMARK   42  A    between atoms: _96  and  _97
REMARK   43  A    between atoms: _100  and  _102
REMARK   44  A    between atoms: _102  and  _103
REMARK   45  A    between atoms: _102  and  _105
REMARK   46  A    between atoms: _108  and  _110
REMARK   47  A    between atoms: _110  and  _111
REMARK   48  A    between atoms: _110  and  _113
REMARK   49  A    between atoms: _113  and  _114
REMARK   50  A    between atoms: _114  and  _115
REMARK   51  A    between atoms: _115  and  _116
REMARK   52  A    between atoms: _116  and  _117
REMARK   53  A    between atoms: _121  and  _123
REMARK   54  A    between atoms: _123  and  _124
REMARK   55  A    between atoms: _123  and  _126
REMARK   56  A    between atoms: _126  and  _127
REMARK   57  A    between atoms: _130  and  _132
REMARK   58  A    between atoms: _132  and  _133
REMARK   59  A    between atoms: _132  and  _135
REMARK   60  A    between atoms: _138  and  _140
REMARK   61  A    between atoms: _140  and  _141
REMARK   62  A    between atoms: _143  and  _145
REMARK   63  A    between atoms: _145  and  _146
REMARK   64  A    between atoms: _148  and  _150
REMARK   65  A    between atoms: _150  and  _151
REMARK   66  A    between atoms: _150  and  _153
REMARK   67  A    between atoms: _153  and  _154
REMARK   68  A    between atoms: _157  and  _159
REMARK   69  A    between atoms: _159  and  _160
REMARK   70  A    between atoms: _162  and  _164
REMARK   71  A    between atoms: _164  and  _165
REMARK   72  A    between atoms: _167  and  _169
REMARK   73  A    between atoms: _169  and  _170
REMARK   74  A    between atoms: _169  and  _172
REMARK   75  A    between atoms: _172  and  _173
REMARK   76  A    between atoms: _179  and  _181
REMARK   77  A    between atoms: _181  and  _182
REMARK   78  A    between atoms: _181  and  _184
REMARK   79  A    between atoms: _184  and  _185
REMARK   80  A    between atoms: _188  and  _190
REMARK   81  A    between atoms: _190  and  _191
REMARK   82  A    between atoms: _190  and  _193
REMARK   83  A    between atoms: _193  and  _194
REMARK   84  A    between atoms: _197  and  _199
REMARK   85  A    between atoms: _199  and  _200
REMARK   86  A    between atoms: _199  and  _202
REMARK   87  A    between atoms: _202  and  _203
REMARK   88  A    between atoms: _203  and  _204
REMARK   89  A    between atoms: _206  and  _208
REMARK   90  A    between atoms: _208  and  _209
REMARK   91  A    between atoms: _208  and  _211
REMARK   92  A    between atoms: _211  and  _212
REMARK   93  A    between atoms: _216  and  _217
REMARK   94  A    between atoms: _222  and  _224
REMARK   95  A    between atoms: _224  and  _225
REMARK   96  A    between atoms: _224  and  _227
REMARK   97  A    between atoms: _227  and  _228
REMARK   98  A    between atoms: _231  and  _233
REMARK   99  A    between atoms: _233  and  _234
REMARK  100  A    between atoms: _233  and  _236
REMARK  101  A    between atoms: _236  and  _237
REMARK  102  A    between atoms: _242  and  _244
REMARK  103  A    between atoms: _244  and  _245
REMARK  104  A    between atoms: _244  and  _247
REMARK  105  A    between atoms: _247  and  _248
REMARK  106  A    between atoms: _251  and  _253
REMARK  107  A    between atoms: _253  and  _254
REMARK  108  A    between atoms: _253  and  _256
REMARK  109  A    between atoms: _256  and  _257
REMARK  110  A    between atoms: _263  and  _265
REMARK  111  A    between atoms: _265  and  _266
REMARK  112  A    between atoms: _268  and  _270
REMARK  113  A    between atoms: _270  and  _271
REMARK  114  A    between atoms: _270  and  _273
REMARK  115  A    between atoms: _273  and  _274
REMARK  116  A    between atoms: _274  and  _275
REMARK  117  A    between atoms: _275  and  _276
REMARK  118  A    between atoms: _285  and  _287
REMARK  119  A    between atoms: _287  and  _288
REMARK  120  A    between atoms: _287  and  _290
REMARK  121  A    between atoms: _290  and  _291
REMARK  122  A    between atoms: _296  and  _298
REMARK  123  A    between atoms: _298  and  _299
REMARK  124  A    between atoms: _298  and  _301
REMARK  125  A    between atoms: _301  and  _302
REMARK  126  A    between atoms: _302  and  _303
REMARK  127  A    between atoms: _303  and  _304
REMARK  128  A    between atoms: _313  and  _315
REMARK  129  A    between atoms: _315  and  _316
REMARK  130  A    between atoms: _315  and  _318
REMARK  131  A    between atoms: _318  and  _319
REMARK  132  A    between atoms: _322  and  _324
REMARK  133  A    between atoms: _324  and  _325
REMARK  134  A    between atoms: _324  and  _327
REMARK  135  A    between atoms: _327  and  _328
REMARK  136  A    between atoms: _331  and  _333
REMARK  137  A    between atoms: _333  and  _334
REMARK  138  A    between atoms: _333  and  _336
REMARK  139  A    between atoms: _336  and  _337
REMARK  140  A    between atoms: _340  and  _342
REMARK  141  A    between atoms: _342  and  _343
REMARK  142  A    between atoms: _342  and  _345
REMARK  143  A    between atoms: _345  and  _346
REMARK  144  A    between atoms: _349  and  _351
REMARK  145  A    between atoms: _351  and  _352
REMARK  146  A    between atoms: _354  and  _356
REMARK  147  A    between atoms: _356  and  _357
REMARK  148  A    between atoms: _360  and  _362
REMARK  149  A    between atoms: _362  and  _363
REMARK  150  A    between atoms: _362  and  _365
REMARK  151  A    between atoms: _365  and  _366
REMARK  152  A    between atoms: _369  and  _371
REMARK  153  A    between atoms: _371  and  _372
REMARK  154  A    between atoms: _371  and  _374
REMARK  155  A    between atoms: _374  and  _375
REMARK  156  A    between atoms: _378  and  _380
REMARK  157  A    between atoms: _380  and  _381
REMARK  158  A    between atoms: _380  and  _383
REMARK  159  A    between atoms: _383  and  _384
REMARK  160  A    between atoms: _386  and  _388
REMARK  161  A    between atoms: _388  and  _389
REMARK  162  A    between atoms: _388  and  _391
REMARK  163  A    between atoms: _391  and  _392
REMARK  164  A    between atoms: _395  and  _397
REMARK  165  A    between atoms: _397  and  _398
REMARK  166  A    between atoms: _397  and  _400
REMARK  167  A    between atoms: _400  and  _401
REMARK  168  A    between atoms: _401  and  _402
REMARK  169  A    between atoms: _402  and  _403
REMARK  170  A    between atoms: _403  and  _404
REMARK  171  A    between atoms: _408  and  _410
REMARK  172  A    between atoms: _410  and  _411
REMARK  173  A    between atoms: _410  and  _413
REMARK  174  A    between atoms: _413  and  _414
REMARK  175  A    between atoms: _417  and  _419
REMARK  176  A    between atoms: _419  and  _420
REMARK  177  A    between atoms: _419  and  _422
REMARK  178  A    between atoms: _425  and  _427
REMARK  179  A    between atoms: _427  and  _428
REMARK  180  A    between atoms: _430  and  _432
REMARK  181  A    between atoms: _432  and  _433
REMARK  182  A    between atoms: _435  and  _437
REMARK  183  A    between atoms: _437  and  _438
REMARK  184  A    between atoms: _437  and  _440
REMARK  185  A    between atoms: _440  and  _441
REMARK  186  A    between atoms: _444  and  _446
REMARK  187  A    between atoms: _446  and  _447
REMARK  188  A    between atoms: _449  and  _451
REMARK  189  A    between atoms: _451  and  _452
REMARK  190  A    between atoms: _454  and  _456
REMARK  191  A    between atoms: _456  and  _457
REMARK  192  A    between atoms: _456  and  _459
REMARK  193  A    between atoms: _459  and  _460
REMARK  194  A    between atoms: _466  and  _468
REMARK  195  A    between atoms: _468  and  _469
REMARK  196  A    between atoms: _468  and  _471
REMARK  197  A    between atoms: _471  and  _472
REMARK  198  A    between atoms: _475  and  _477
REMARK  199  A    between atoms: _477  and  _478
REMARK  200  A    between atoms: _477  and  _480
REMARK  201  A    between atoms: _480  and  _481
REMARK  202  A    between atoms: _484  and  _486
REMARK  203  A    between atoms: _486  and  _487
REMARK  204  A    between atoms: _486  and  _489
REMARK  205  A    between atoms: _489  and  _490
REMARK  206  A    between atoms: _490  and  _491
REMARK  207  A    between atoms: _493  and  _495
REMARK  208  A    between atoms: _495  and  _496
REMARK  209  A    between atoms: _495  and  _498
REMARK  210  A    between atoms: _498  and  _499
REMARK  211  A    between atoms: _503  and  _504
REMARK  212  A    between atoms: _509  and  _511
REMARK  213  A    between atoms: _511  and  _512
REMARK  214  A    between atoms: _511  and  _514
REMARK  215  A    between atoms: _514  and  _515
REMARK  216  A    between atoms: _518  and  _520
REMARK  217  A    between atoms: _520  and  _521
REMARK  218  A    between atoms: _520  and  _523
REMARK  219  A    between atoms: _523  and  _524
REMARK  220  A    between atoms: _529  and  _531
REMARK  221  A    between atoms: _531  and  _532
REMARK  222  A    between atoms: _531  and  _534
REMARK  223  A    between atoms: _534  and  _535
REMARK  224  A    between atoms: _538  and  _540
REMARK  225  A    between atoms: _540  and  _541
REMARK  226  A    between atoms: _540  and  _543
REMARK  227  A    between atoms: _543  and  _544
REMARK  228  A    between atoms: _550  and  _552
REMARK  229  A    between atoms: _552  and  _553
REMARK  230  A    between atoms: _555  and  _557
REMARK  231  A    between atoms: _557  and  _558
REMARK  232  A    between atoms: _557  and  _560
REMARK  233  A    between atoms: _560  and  _561
REMARK  234  A    between atoms: _561  and  _562
REMARK  235  A    between atoms: _562  and  _563
REMARK  236  A    between atoms: _572  and  _574
REMARK  237  A    between atoms: _574  and  _575
REMARK  238  A    between atoms: _574  and  _577
REMARK  239  A    between atoms: _577  and  _578
REMARK                            x       y       z     vdW  Elec       q    Type
REMARK                         _______ _______ _______ _____ _____    ______ ____
ROOT
ATOM      1  C   ILE A   5       5.473   7.701   3.337  0.00  0.00    +0.241 C 
ATOM      2  O   ILE A   5       4.276   7.448   3.450  0.00  0.00    -0.273 OA
ATOM      3  N   PHE A   6       6.042   8.023   2.188  0.00  0.00    -0.297 N 
ATOM      4  H   PHE A   6       6.996   8.436   2.186  0.00  0.00    +0.150 HD
ENDROOT
BRANCH   3   5
ATOM      5  CA  PHE A   6       5.355   7.808   0.932  0.00  0.00    +0.153 C 
BRANCH   5   6
ATOM      6  C   PHE A   6       5.980   6.575   0.284  0.00  0.00    +0.241 C 
ATOM      7  N   GLY A   7       5.242   5.464   0.320  0.00  0.00    -0.295 N 
ATOM      8  H   GLY A   7       4.274   5.508   0.698  0.00  0.00    +0.150 HD
ATOM      9  O   PHE A   6       7.115   6.627  -0.206  0.00  0.00    -0.273 OA
BRANCH   7  10
ATOM     10  CA  GLY A   7       5.763   4.193  -0.159  0.00  0.00    +0.176 C 
BRANCH  10  11
ATOM     11  C   GLY A   7       5.558   3.940  -1.643  0.00  0.00    +0.243 C 
ATOM     12  N   ARG A   8       5.693   2.687  -2.051  0.00  0.00    -0.297 N 
ATOM     13  H   ARG A   8       5.800   1.925  -1.351  0.00  0.00    +0.150 HD
ATOM     14  O   GLY A   7       5.278   4.853  -2.418  0.00  0.00    -0.273 OA
BRANCH  12  15
ATOM     15  CA  ARG A   8       5.693   2.369  -3.473  0.00  0.00    +0.149 C 
BRANCH  15  16
ATOM     16  C   ARG A   8       4.337   2.694  -4.082  0.00  0.00    +0.241 C 
ATOM     17  N   ASN A   9       3.260   2.483  -3.326  0.00  0.00    -0.298 N 
ATOM     18  H   ASN A   9       3.376   2.179  -2.338  0.00  0.00    +0.150 HD
ATOM     19  O   ARG A   8       4.272   3.178  -5.212  0.00  0.00    -0.273 OA
BRANCH  17  20
ATOM     20  CA  ASN A   9       1.918   2.675  -3.872  0.00  0.00    +0.146 C 
BRANCH  20  21
ATOM     21  C   ASN A   9       1.731   4.085  -4.435  0.00  0.00    +0.227 C 
ATOM     22  O   ASN A   9       0.984   4.288  -5.396  0.00  0.00    -0.286 OA
ENDBRANCH  20  21
BRANCH  20  23
ATOM     23  CB  ASN A   9       0.838   2.358  -2.820  0.00  0.00    +0.112 C 
BRANCH  23  24
ATOM     24  CG  ASN A   9       0.830   3.340  -1.663  0.00  0.00    +0.222 C 
ATOM     25  OD1 ASN A   9       1.877   3.649  -1.089  0.00  0.00    -0.275 OA
ATOM     26  ND2 ASN A   9      -0.350   3.869  -1.338  0.00  0.00    -0.329 N 
ATOM     27 HD21 ASN A   9      -0.412   4.571  -0.574  0.00  0.00    +0.145 HD
ATOM     28 HD22 ASN A   9      -1.208   3.579  -1.849  0.00  0.00    +0.145 HD
ENDBRANCH  23  24
ENDBRANCH  20  23
ENDBRANCH  17  20
ENDBRANCH  15  16
BRANCH  15  29
ATOM     29  CB  ARG A   8       6.051   0.898  -3.711  0.00  0.00    +0.033 C 
BRANCH  29  30
ATOM     30  CG  ARG A   8       7.499   0.659  -4.176  0.00  0.00    +0.045 C 
BRANCH  30  31
ATOM     31  CD  ARG A   8       7.876  -0.814  -4.085  0.00  0.00    +0.174 C 
BRANCH  31  32
ATOM     32  NE  ARG A   8       6.835  -1.645  -4.682  0.00  0.00    -0.265 N 
ATOM     33  CZ  ARG A   8       6.287  -2.707  -4.100  0.00  0.00    +0.342 C 
ATOM     34  NH2 ARG A   8       6.867  -3.275  -3.056  0.00  0.00    -0.292 N 
ATOM     35 HH21 ARG A   8       6.431  -4.106  -2.607  0.00  0.00    +0.255 HD
ATOM     36 HH22 ARG A   8       7.759  -2.891  -2.684  0.00  0.00    +0.255 HD
ATOM     37  NH1 ARG A   8       5.226  -3.283  -4.640  0.00  0.00    -0.292 N 
ATOM     38 HH11 ARG A   8       4.797  -4.114  -4.185  0.00  0.00    +0.255 HD
ATOM     39 HH12 ARG A   8       4.820  -2.905  -5.520  0.00  0.00    +0.255 HD
ATOM     40  HE  ARG A   8       6.498  -1.388  -5.631  0.00  0.00    +0.259 HD
ENDBRANCH  31  32
ENDBRANCH  30  31
ENDBRANCH  29  30
ENDBRANCH  15  29
ENDBRANCH  12  15
ENDBRANCH  10  11
ENDBRANCH   7  10
ENDBRANCH   5   6
BRANCH   5  41
ATOM     41  CB  PHE A   6       5.500   9.042   0.043  0.00  0.00    +0.055 C 
BRANCH  41  42
ATOM     42  CG  PHE A   6       4.336  10.008   0.146  0.00  0.00    -0.020 A 
ATOM     43  CD2 PHE A   6       3.353   9.837   1.100  0.00  0.00    -0.004 A 
ATOM     44  CE2 PHE A   6       2.305  10.754   1.203  0.00  0.00    -0.000 A 
ATOM     45  CZ  PHE A   6       2.242  11.845   0.346  0.00  0.00    -0.000 A 
ATOM     46  CE1 PHE A   6       3.209  12.017  -0.606  0.00  0.00    -0.000 A 
ATOM     47  CD1 PHE A   6       4.244  11.110  -0.708  0.00  0.00    -0.004 A 
ENDBRANCH  41  42
ENDBRANCH   5  41
ENDBRANCH   3   5
BRANCH   1  48
ATOM     48  CA  ILE A   5       6.380   7.652   4.540  0.00  0.00    +0.149 C 
BRANCH  48  51
ATOM     49  C   ASN A   4       6.478   9.434   6.227  0.00  0.00    +0.241 C 
ATOM     50  O   ASN A   4       7.575   9.862   5.856  0.00  0.00    -0.273 OA
ATOM     51  N   ILE A   5       5.791   8.507   5.569  0.00  0.00    -0.297 N 
ATOM     52  H   ILE A   5       4.784   8.383   5.797  0.00  0.00    +0.150 HD
BRANCH  49  53
ATOM     53  CA  ASN A   4       5.795   9.978   7.481  0.00  0.00    +0.158 C 
BRANCH  53  56
ATOM     54  C   ILE A   3       7.207   9.107   9.283  0.00  0.00    +0.241 C 
ATOM     55  O   ILE A   3       6.784   7.960   9.150  0.00  0.00    -0.273 OA
ATOM     56  N   ASN A   4       6.745  10.138   8.583  0.00  0.00    -0.297 N 
ATOM     57  H   ASN A   4       7.071  11.095   8.828  0.00  0.00    +0.150 HD
BRANCH  54  58
ATOM     58  CA  ILE A   3       8.280   9.421  10.326  0.00  0.00    +0.149 C 
BRANCH  58  61
ATOM     59  C   PRO A   2       8.289   8.955  12.716  0.00  0.00    +0.241 C 
ATOM     60  O   PRO A   2       8.778  10.065  12.981  0.00  0.00    -0.273 OA
ATOM     61  N   ILE A   3       8.065   8.548  11.469  0.00  0.00    -0.297 N 
ATOM     62  H   ILE A   3       7.727   7.578  11.307  0.00  0.00    +0.150 HD
BRANCH  59  68
ATOM     63  C   THR A   1       5.621   7.324  13.182  0.00  0.00    +0.244 C 
ATOM     64  N   PRO A   2       6.881   6.983  13.533  0.00  0.00    -0.272 N 
ATOM     65  CD  PRO A   2       7.304   5.608  13.868  0.00  0.00    +0.094 C 
ATOM     66  CG  PRO A   2       8.802   5.690  13.727  0.00  0.00    +0.024 C 
ATOM     67  CB  PRO A   2       9.161   7.062  14.193  0.00  0.00    +0.031 C 
ATOM     68  CA  PRO A   2       7.948   7.950  13.837  0.00  0.00    +0.152 C 
ATOM     69  O   THR A   1       5.195   8.475  13.337  0.00  0.00    -0.273 OA
BRANCH  63  70
ATOM     70  CA  THR A   1       4.679   6.199  12.715  0.00  0.00    +0.172 C 
BRANCH  70  71
ATOM     71  N   THR A   1       3.380   6.376  13.346  0.00  0.00    -0.236 NA
ATOM     72  H   THR A   1       2.697   7.034  12.920  0.00  0.00    +0.142 HD
ENDBRANCH  70  71
BRANCH  70  73
ATOM     73  CB  THR A   1       4.506   6.196  11.169  0.00  0.00    +0.135 C 
ATOM     74  CG2 THR A   1       3.869   7.491  10.700  0.00  0.00    +0.034 C 
BRANCH  73  75
ATOM     75  OG1 THR A   1       5.771   6.023  10.523  0.00  0.00    -0.383 OA
ATOM     76  HG1 THR A   1       6.375   6.765  10.778  0.00  0.00    +0.210 HD
ENDBRANCH  73  75
ENDBRANCH  70  73
ENDBRANCH  63  70
ENDBRANCH  59  68
ENDBRANCH  58  61
BRANCH  58  77
ATOM     77  CB  ILE A   3       9.699   9.207   9.735  0.00  0.00    +0.027 C 
ATOM     78  CG2 ILE A   3       9.756   7.921   8.922  0.00  0.00    +0.002 C 
BRANCH  77  79
ATOM     79  CG1 ILE A   3      10.119  10.417   8.897  0.00  0.00    +0.002 C 
ATOM     80  CD1 ILE A   3      11.640  10.548   8.740  0.00  0.00    +0.000 C 
ENDBRANCH  77  79
ENDBRANCH  58  77
ENDBRANCH  54  58
ENDBRANCH  53  56
BRANCH  53  81
ATOM     81  CB  ASN A   4       5.106  11.311   7.164  0.00  0.00    +0.114 C 
BRANCH  81  82
ATOM     82  CG  ASN A   4       4.390  11.887   8.362  0.00  0.00    +0.222 C 
ATOM     83  OD1 ASN A   4       3.970  11.158   9.254  0.00  0.00    -0.275 OA
ATOM     84  ND2 ASN A   4       4.317  13.202   8.428  0.00  0.00    -0.329 N 
ATOM     85 HD21 ASN A   4       3.891  13.658   9.260  0.00  0.00    +0.145 HD
ATOM     86 HD22 ASN A   4       4.686  13.783   7.648  0.00  0.00    +0.145 HD
ENDBRANCH  81  82
ENDBRANCH  53  81
ENDBRANCH  49  53
ENDBRANCH  48  51
BRANCH  48  87
ATOM     87  CB  ILE A   5       6.445   6.163   4.985  0.00  0.00    +0.027 C 
ATOM     88  CG2 ILE A   5       7.002   5.300   3.853  0.00  0.00    +0.002 C 
BRANCH  87  89
ATOM     89  CG1 ILE A   5       7.289   6.007   6.253  0.00  0.00    +0.002 C 
ATOM     90  CD1 ILE A   5       7.271   4.607   6.798  0.00  0.00    +0.000 C 
ENDBRANCH  87  89
ENDBRANCH  48  87
ENDBRANCH   1  48
TORSDOF 33
REMARK  Name = ../refined-set-2016/1hsh/1hsh_pocket.pdb
REMARK  239 active torsions:
REMARK  status: ('A' for Active; 'I' for Inactive)
REMARK    1  A    between atoms: _1  and  _3
REMARK    2  A    between atoms: _3  and  _4
REMARK    3  A    between atoms: _3  and  _6
REMARK    4  A    between atoms: _6  and  _7
REMARK    5  A    between atoms: _7  and  _8
REMARK    6  A    between atoms: _8  and  _9
REMARK    7  A    between atoms: _18  and  _20
REMARK    8  A    between atoms: _20  and  _21
REMARK    9  A    between atoms: _20  and  _23
REMARK   10  A    between atoms: _23  and  _24
REMARK   11  A    between atoms: _27  and  _29
REMARK   12  A    between atoms: _29  and  _30
REMARK   13  A    between atoms: _29  and  _32
REMARK   14  A    between atoms: _32  and  _33
REMARK   15  A    between atoms: _36  and  _38
REMARK   16  A    between atoms: _38  and  _39
REMARK   17  A    between atoms: _38  and  _41
REMARK   18  A    between atoms: _41  and  _42
REMARK   19  A    between atoms: _45  and  _47
REMARK   20  A    between atoms: _47  and  _48
REMARK   21  A    between atoms: _47  and  _50
REMARK   22  A    between atoms: _50  and  _51
REMARK   23  A    between atoms: _54  and  _56
REMARK   24  A    between atoms: _56  and  _57
REMARK   25  A    between atoms: _59  and  _61
REMARK   26  A    between atoms: _61  and  _62
REMARK   27  A    between atoms: _65  and  _67
REMARK   28  A    between atoms: _67  and  _68
REMARK   29  A    between atoms: _67  and  _70
REMARK   30  A    between atoms: _70  and  _71
REMARK   31  A    between atoms: _74  and  _76
REMARK   32  A    between atoms: _76  and  _77
REMARK   33  A    between atoms: _76  and  _79
REMARK   34  A    between atoms: _79  and  _80
REMARK   35  A    between atoms: _83  and  _85
REMARK   36  A    between atoms: _85  and  _86
REMARK   37  A    between atoms: _85  and  _88
REMARK   38  A    between atoms: _88  and  _89
REMARK   39  A    between atoms: _91  and  _93
REMARK   40  A    between atoms: _93  and  _94
REMARK   41  A    between atoms: _93  and  _96
REMARK   42  A    between atoms: _96  and  _97
REMARK   43  A    between atoms: _100  and  _102
REMARK   44  A    between atoms: _102  and  _103
REMARK   45  A    between atoms: _102  and  _105
REMARK   46  A    between atoms: _108  and  _110
REMARK   47  A    between atoms: _110  and  _111
REMARK   48  A    between atoms: _110  and  _113
REMARK   49  A    between atoms: _113  and  _114
REMARK   50  A    between atoms: _114  and  _115
REMARK   51  A    between atoms: _115  and  _116
REMARK   52  A    between atoms: _116  and  _117
REMARK   53  A    between atoms: _121  and  _123
REMARK   54  A    between atoms: _123  and  _124
REMARK   55  A    between atoms: _123  and  _126
REMARK   56  A    between atoms: _126  and  _127
REMARK   57  A    between atoms: _130  and  _132
REMARK   58  A    between atoms: _132  and  _133
REMARK   59  A    between atoms: _132  and  _135
REMARK   60  A    between atoms: _138  and  _140
REMARK   61  A    between atoms: _140  and  _141
REMARK   62  A    between atoms: _143  and  _145
REMARK   63  A    between atoms: _145  and  _146
REMARK   64  A    between atoms: _148  and  _150
REMARK   65  A    between atoms: _150  and  _151
REMARK   66  A    between atoms: _150  and  _153
REMARK   67  A    between atoms: _153  and  _154
REMARK   68  A    between atoms: _157  and  _159
REMARK   69  A    between atoms: _159  and  _160
REMARK   70  A    between atoms: _162  and  _164
REMARK   71  A    between atoms: _164  and  _165
REMARK   72  A    between atoms: _167  and  _169
REMARK   73  A    between atoms: _169  and  _170
REMARK   74  A    between atoms: _169  and  _172
REMARK   75  A    between atoms: _172  and  _173
REMARK   76  A    between atoms: _179  and  _181
REMARK   77  A    between atoms: _181  and  _182
REMARK   78  A    between atoms: _181  and  _184
REMARK   79  A    between atoms: _184  and  _185
REMARK   80  A    between atoms: _188  and  _190
REMARK   81  A    between atoms: _190  and  _191
REMARK   82  A    between atoms: _190  and  _193
REMARK   83  A    between atoms: _193  and  _194
REMARK   84  A    between atoms: _197  and  _199
REMARK   85  A    between atoms: _199  and  _200
REMARK   86  A    between atoms: _199  and  _202
REMARK   87  A    between atoms: _202  and  _203
REMARK   88  A    between atoms: _203  and  _204
REMARK   89  A    between atoms: _206  and  _208
REMARK   90  A    between atoms: _208  and  _209
REMARK   91  A    between atoms: _208  and  _211
REMARK   92  A    between atoms: _211  and  _212
REMARK   93  A    between atoms: _216  and  _217
REMARK   94  A    between atoms: _222  and  _224
REMARK   95  A    between atoms: _224  and  _225
REMARK   96  A    between atoms: _224  and  _227
REMARK   97  A    between atoms: _227  and  _228
REMARK   98  A    between atoms: _231  and  _233
REMARK   99  A    between atoms: _233  and  _234
REMARK  100  A    between atoms: _233  and  _236
REMARK  101  A    between atoms: _236  and  _237
REMARK  102  A    between atoms: _242  and  _244
REMARK  103  A    between atoms: _244  and  _245
REMARK  104  A    between atoms: _244  and  _247
REMARK  105  A    between atoms: _247  and  _248
REMARK  106  A    between atoms: _251  and  _253
REMARK  107  A    between atoms: _253  and  _254
REMARK  108  A    between atoms: _253  and  _256
REMARK  109  A    between atoms: _256  and  _257
REMARK  110  A    between atoms: _263  and  _265
REMARK  111  A    between atoms: _265  and  _266
REMARK  112  A    between atoms: _268  and  _270
REMARK  113  A    between atoms: _270  and  _271
REMARK  114  A    between atoms: _270  and  _273
REMARK  115  A    between atoms: _273  and  _274
REMARK  116  A    between atoms: _274  and  _275
REMARK  117  A    between atoms: _275  and  _276
REMARK  118  A    between atoms: _285  and  _287
REMARK  119  A    between atoms: _287  and  _288
REMARK  120  A    between atoms: _287  and  _290
REMARK  121  A    between atoms: _290  and  _291
REMARK  122  A    between atoms: _296  and  _298
REMARK  123  A    between atoms: _298  and  _299
REMARK  124  A    between atoms: _298  and  _301
REMARK  125  A    between atoms: _301  and  _302
REMARK  126  A    between atoms: _302  and  _303
REMARK  127  A    between atoms: _303  and  _304
REMARK  128  A    between atoms: _313  and  _315
REMARK  129  A    between atoms: _315  and  _316
REMARK  130  A    between atoms: _315  and  _318
REMARK  131  A    between atoms: _318  and  _319
REMARK  132  A    between atoms: _322  and  _324
REMARK  133  A    between atoms: _324  and  _325
REMARK  134  A    between atoms: _324  and  _327
REMARK  135  A    between atoms: _327  and  _328
REMARK  136  A    between atoms: _331  and  _333
REMARK  137  A    between atoms: _333  and  _334
REMARK  138  A    between atoms: _333  and  _336
REMARK  139  A    between atoms: _336  and  _337
REMARK  140  A    between atoms: _340  and  _342
REMARK  141  A    between atoms: _342  and  _343
REMARK  142  A    between atoms: _342  and  _345
REMARK  143  A    between atoms: _345  and  _346
REMARK  144  A    between atoms: _349  and  _351
REMARK  145  A    between atoms: _351  and  _352
REMARK  146  A    between atoms: _354  and  _356
REMARK  147  A    between atoms: _356  and  _357
REMARK  148  A    between atoms: _360  and  _362
REMARK  149  A    between atoms: _362  and  _363
REMARK  150  A    between atoms: _362  and  _365
REMARK  151  A    between atoms: _365  and  _366
REMARK  152  A    between atoms: _369  and  _371
REMARK  153  A    between atoms: _371  and  _372
REMARK  154  A    between atoms: _371  and  _374
REMARK  155  A    between atoms: _374  and  _375
REMARK  156  A    between atoms: _378  and  _380
REMARK  157  A    between atoms: _380  and  _381
REMARK  158  A    between atoms: _380  and  _383
REMARK  159  A    between atoms: _383  and  _384
REMARK  160  A    between atoms: _386  and  _388
REMARK  161  A    between atoms: _388  and  _389
REMARK  162  A    between atoms: _388  and  _391
REMARK  163  A    between atoms: _391  and  _392
REMARK  164  A    between atoms: _395  and  _397
REMARK  165  A    between atoms: _397  and  _398
REMARK  166  A    between atoms: _397  and  _400
REMARK  167  A    between atoms: _400  and  _401
REMARK  168  A    between atoms: _401  and  _402
REMARK  169  A    between atoms: _402  and  _403
REMARK  170  A    between atoms: _403  and  _404
REMARK  171  A    between atoms: _408  and  _410
REMARK  172  A    between atoms: _410  and  _411
REMARK  173  A    between atoms: _410  and  _413
REMARK  174  A    between atoms: _413  and  _414
REMARK  175  A    between atoms: _417  and  _419
REMARK  176  A    between atoms: _419  and  _420
REMARK  177  A    between atoms: _419  and  _422
REMARK  178  A    between atoms: _425  and  _427
REMARK  179  A    between atoms: _427  and  _428
REMARK  180  A    between atoms: _430  and  _432
REMARK  181  A    between atoms: _432  and  _433
REMARK  182  A    between atoms: _435  and  _437
REMARK  183  A    between atoms: _437  and  _438
REMARK  184  A    between atoms: _437  and  _440
REMARK  185  A    between atoms: _440  and  _441
REMARK  186  A    between atoms: _444  and  _446
REMARK  187  A    between atoms: _446  and  _447
REMARK  188  A    between atoms: _449  and  _451
REMARK  189  A    between atoms: _451  and  _452
REMARK  190  A    between atoms: _454  and  _456
REMARK  191  A    between atoms: _456  and  _457
REMARK  192  A    between atoms: _456  and  _459
REMARK  193  A    between atoms: _459  and  _460
REMARK  194  A    between atoms: _466  and  _468
REMARK  195  A    between atoms: _468  and  _469
REMARK  196  A    between atoms: _468  and  _471
REMARK  197  A    between atoms: _471  and  _472
REMARK  198  A    between atoms: _475  and  _477
REMARK  199  A    between atoms: _477  and  _478
REMARK  200  A    between atoms: _477  and  _480
REMARK  201  A    between atoms: _480  and  _481
REMARK  202  A    between atoms: _484  and  _486
REMARK  203  A    between atoms: _486  and  _487
REMARK  204  A    between atoms: _486  and  _489
REMARK  205  A    between atoms: _489  and  _490
REMARK  206  A    between atoms: _490  and  _491
REMARK  207  A    between atoms: _493  and  _495
REMARK  208  A    between atoms: _495  and  _496
REMARK  209  A    between atoms: _495  and  _498
REMARK  210  A    between atoms: _498  and  _499
REMARK  211  A    between atoms: _503  and  _504
REMARK  212  A    between atoms: _509  and  _511
REMARK  213  A    between atoms: _511  and  _512
REMARK  214  A    between atoms: _511  and  _514
REMARK  215  A    between atoms: _514  and  _515
REMARK  216  A    between atoms: _518  and  _520
REMARK  217  A    between atoms: _520  and  _521
REMARK  218  A    between atoms: _520  and  _523
REMARK  219  A    between atoms: _523  and  _524
REMARK  220  A    between atoms: _529  and  _531
REMARK  221  A    between atoms: _531  and  _532
REMARK  222  A    between atoms: _531  and  _534
REMARK  223  A    between atoms: _534  and  _535
REMARK  224  A    between atoms: _538  and  _540
REMARK  225  A    between atoms: _540  and  _541
REMARK  226  A    between atoms: _540  and  _543
REMARK  227  A    between atoms: _543  and  _544
REMARK  228  A    between atoms: _550  and  _552
REMARK  229  A    between atoms: _552  and  _553
REMARK  230  A    between atoms: _555  and  _557
REMARK  231  A    between atoms: _557  and  _558
REMARK  232  A    between atoms: _557  and  _560
REMARK  233  A    between atoms: _560  and  _561
REMARK  234  A    between atoms: _561  and  _562
REMARK  235  A    between atoms: _562  and  _563
REMARK  236  A    between atoms: _572  and  _574
REMARK  237  A    between atoms: _574  and  _575
REMARK  238  A    between atoms: _574  and  _577
REMARK  239  A    between atoms: _577  and  _578
REMARK                            x       y       z     vdW  Elec       q    Type
REMARK                         _______ _______ _______ _____ _____    ______ ____
ROOT
ATOM      1  NE  ARG A   1       8.820  -6.974  -1.076  0.00  0.00    -0.265 N 
ATOM      2  CZ  ARG A   1       8.193  -7.476  -0.018  0.00  0.00    +0.342 C 
ATOM      3  NH2 ARG A   1       7.263  -6.790   0.647  0.00  0.00    -0.292 N 
ATOM      4 HH21 ARG A   1       6.793  -7.216   1.471  0.00  0.00    +0.255 HD
ATOM      5 HH22 ARG A   1       7.008  -5.829   0.341  0.00  0.00    +0.255 HD
ATOM      6  NH1 ARG A   1       8.569  -8.653   0.416  0.00  0.00    -0.292 N 
ATOM      7 HH11 ARG A   1       8.100  -9.077   1.242  0.00  0.00    +0.255 HD
ATOM      8 HH12 ARG A   1       9.336  -9.164  -0.065  0.00  0.00    +0.255 HD
ATOM      9  HE  ARG A   1       9.668  -7.473  -1.414  0.00  0.00    +0.259 HD
ENDROOT
BRANCH   1  10
ATOM     10  CD  ARG A   1       8.412  -5.781  -1.797  0.00  0.00    +0.174 C 
BRANCH  10  11
ATOM     11  CG  ARG A   1       9.611  -5.031  -2.361  0.00  0.00    +0.045 C 
BRANCH  11  12
ATOM     12  CB  ARG A   1      10.037  -5.490  -3.736  0.00  0.00    +0.029 C 
BRANCH  12  13
ATOM     13  CA  ARG A   1       9.985  -4.392  -4.805  0.00  0.00    +0.133 C 
BRANCH  13  14
ATOM     14  N   ARG A   1       8.869  -4.652  -5.723  0.00  0.00    -0.239 NA
ATOM     15  H   ARG A   1       8.229  -5.446  -5.520  0.00  0.00    +0.142 HD
ENDBRANCH  13  14
BRANCH  13  16
ATOM     16  C   ARG A   1      11.314  -4.361  -5.567  0.00  0.00    +0.224 C 
ATOM     17  O   ARG A   1      11.609  -5.274  -6.343  0.00  0.00    -0.287 OA
ENDBRANCH  13  16
ENDBRANCH  12  13
ENDBRANCH  11  12
ENDBRANCH  10  11
ENDBRANCH   1  10
TORSDOF 6
REMARK  Name = ../refined-set-2016/1hsh/1hsh_pocket.pdb
REMARK  239 active torsions:
REMARK  status: ('A' for Active; 'I' for Inactive)
REMARK    1  A    between atoms: _1  and  _3
REMARK    2  A    between atoms: _3  and  _4
REMARK    3  A    between atoms: _3  and  _6
REMARK    4  A    between atoms: _6  and  _7
REMARK    5  A    between atoms: _7  and  _8
REMARK    6  A    between atoms: _8  and  _9
REMARK    7  A    between atoms: _18  and  _20
REMARK    8  A    between atoms: _20  and  _21
REMARK    9  A    between atoms: _20  and  _23
REMARK   10  A    between atoms: _23  and  _24
REMARK   11  A    between atoms: _27  and  _29
REMARK   12  A    between atoms: _29  and  _30
REMARK   13  A    between atoms: _29  and  _32
REMARK   14  A    between atoms: _32  and  _33
REMARK   15  A    between atoms: _36  and  _38
REMARK   16  A    between atoms: _38  and  _39
REMARK   17  A    between atoms: _38  and  _41
REMARK   18  A    between atoms: _41  and  _42
REMARK   19  A    between atoms: _45  and  _47
REMARK   20  A    between atoms: _47  and  _48
REMARK   21  A    between atoms: _47  and  _50
REMARK   22  A    between atoms: _50  and  _51
REMARK   23  A    between atoms: _54  and  _56
REMARK   24  A    between atoms: _56  and  _57
REMARK   25  A    between atoms: _59  and  _61
REMARK   26  A    between atoms: _61  and  _62
REMARK   27  A    between atoms: _65  and  _67
REMARK   28  A    between atoms: _67  and  _68
REMARK   29  A    between atoms: _67  and  _70
REMARK   30  A    between atoms: _70  and  _71
REMARK   31  A    between atoms: _74  and  _76
REMARK   32  A    between atoms: _76  and  _77
REMARK   33  A    between atoms: _76  and  _79
REMARK   34  A    between atoms: _79  and  _80
REMARK   35  A    between atoms: _83  and  _85
REMARK   36  A    between atoms: _85  and  _86
REMARK   37  A    between atoms: _85  and  _88
REMARK   38  A    between atoms: _88  and  _89
REMARK   39  A    between atoms: _91  and  _93
REMARK   40  A    between atoms: _93  and  _94
REMARK   41  A    between atoms: _93  and  _96
REMARK   42  A    between atoms: _96  and  _97
REMARK   43  A    between atoms: _100  and  _102
REMARK   44  A    between atoms: _102  and  _103
REMARK   45  A    between atoms: _102  and  _105
REMARK   46  A    between atoms: _108  and  _110
REMARK   47  A    between atoms: _110  and  _111
REMARK   48  A    between atoms: _110  and  _113
REMARK   49  A    between atoms: _113  and  _114
REMARK   50  A    between atoms: _114  and  _115
REMARK   51  A    between atoms: _115  and  _116
REMARK   52  A    between atoms: _116  and  _117
REMARK   53  A    between atoms: _121  and  _123
REMARK   54  A    between atoms: _123  and  _124
REMARK   55  A    between atoms: _123  and  _126
REMARK   56  A    between atoms: _126  and  _127
REMARK   57  A    between atoms: _130  and  _132
REMARK   58  A    between atoms: _132  and  _133
REMARK   59  A    between atoms: _132  and  _135
REMARK   60  A    between atoms: _138  and  _140
REMARK   61  A    between atoms: _140  and  _141
REMARK   62  A    between atoms: _143  and  _145
REMARK   63  A    between atoms: _145  and  _146
REMARK   64  A    between atoms: _148  and  _150
REMARK   65  A    between atoms: _150  and  _151
REMARK   66  A    between atoms: _150  and  _153
REMARK   67  A    between atoms: _153  and  _154
REMARK   68  A    between atoms: _157  and  _159
REMARK   69  A    between atoms: _159  and  _160
REMARK   70  A    between atoms: _162  and  _164
REMARK   71  A    between atoms: _164  and  _165
REMARK   72  A    between atoms: _167  and  _169
REMARK   73  A    between atoms: _169  and  _170
REMARK   74  A    between atoms: _169  and  _172
REMARK   75  A    between atoms: _172  and  _173
REMARK   76  A    between atoms: _179  and  _181
REMARK   77  A    between atoms: _181  and  _182
REMARK   78  A    between atoms: _181  and  _184
REMARK   79  A    between atoms: _184  and  _185
REMARK   80  A    between atoms: _188  and  _190
REMARK   81  A    between atoms: _190  and  _191
REMARK   82  A    between atoms: _190  and  _193
REMARK   83  A    between atoms: _193  and  _194
REMARK   84  A    between atoms: _197  and  _199
REMARK   85  A    between atoms: _199  and  _200
REMARK   86  A    between atoms: _199  and  _202
REMARK   87  A    between atoms: _202  and  _203
REMARK   88  A    between atoms: _203  and  _204
REMARK   89  A    between atoms: _206  and  _208
REMARK   90  A    between atoms: _208  and  _209
REMARK   91  A    between atoms: _208  and  _211
REMARK   92  A    between atoms: _211  and  _212
REMARK   93  A    between atoms: _216  and  _217
REMARK   94  A    between atoms: _222  and  _224
REMARK   95  A    between atoms: _224  and  _225
REMARK   96  A    between atoms: _224  and  _227
REMARK   97  A    between atoms: _227  and  _228
REMARK   98  A    between atoms: _231  and  _233
REMARK   99  A    between atoms: _233  and  _234
REMARK  100  A    between atoms: _233  and  _236
REMARK  101  A    between atoms: _236  and  _237
REMARK  102  A    between atoms: _242  and  _244
REMARK  103  A    between atoms: _244  and  _245
REMARK  104  A    between atoms: _244  and  _247
REMARK  105  A    between atoms: _247  and  _248
REMARK  106  A    between atoms: _251  and  _253
REMARK  107  A    between atoms: _253  and  _254
REMARK  108  A    between atoms: _253  and  _256
REMARK  109  A    between atoms: _256  and  _257
REMARK  110  A    between atoms: _263  and  _265
REMARK  111  A    between atoms: _265  and  _266
REMARK  112  A    between atoms: _268  and  _270
REMARK  113  A    between atoms: _270  and  _271
REMARK  114  A    between atoms: _270  and  _273
REMARK  115  A    between atoms: _273  and  _274
REMARK  116  A    between atoms: _274  and  _275
REMARK  117  A    between atoms: _275  and  _276
REMARK  118  A    between atoms: _285  and  _287
REMARK  119  A    between atoms: _287  and  _288
REMARK  120  A    between atoms: _287  and  _290
REMARK  121  A    between atoms: _290  and  _291
REMARK  122  A    between atoms: _296  and  _298
REMARK  123  A    between atoms: _298  and  _299
REMARK  124  A    between atoms: _298  and  _301
REMARK  125  A    between atoms: _301  and  _302
REMARK  126  A    between atoms: _302  and  _303
REMARK  127  A    between atoms: _303  and  _304
REMARK  128  A    between atoms: _313  and  _315
REMARK  129  A    between atoms: _315  and  _316
REMARK  130  A    between atoms: _315  and  _318
REMARK  131  A    between atoms: _318  and  _319
REMARK  132  A    between atoms: _322  and  _324
REMARK  133  A    between atoms: _324  and  _325
REMARK  134  A    between atoms: _324  and  _327
REMARK  135  A    between atoms: _327  and  _328
REMARK  136  A    between atoms: _331  and  _333
REMARK  137  A    between atoms: _333  and  _334
REMARK  138  A    between atoms: _333  and  _336
REMARK  139  A    between atoms: _336  and  _337
REMARK  140  A    between atoms: _340  and  _342
REMARK  141  A    between atoms: _342  and  _343
REMARK  142  A    between atoms: _342  and  _345
REMARK  143  A    between atoms: _345  and  _346
REMARK  144  A    between atoms: _349  and  _351
REMARK  145  A    between atoms: _351  and  _352
REMARK  146  A    between atoms: _354  and  _356
REMARK  147  A    between atoms: _356  and  _357
REMARK  148  A    between atoms: _360  and  _362
REMARK  149  A    between atoms: _362  and  _363
REMARK  150  A    between atoms: _362  and  _365
REMARK  151  A    between atoms: _365  and  _366
REMARK  152  A    between atoms: _369  and  _371
REMARK  153  A    between atoms: _371  and  _372
REMARK  154  A    between atoms: _371  and  _374
REMARK  155  A    between atoms: _374  and  _375
REMARK  156  A    between atoms: _378  and  _380
REMARK  157  A    between atoms: _380  and  _381
REMARK  158  A    between atoms: _380  and  _383
REMARK  159  A    between atoms: _383  and  _384
REMARK  160  A    between atoms: _386  and  _388
REMARK  161  A    between atoms: _388  and  _389
REMARK  162  A    between atoms: _388  and  _391
REMARK  163  A    between atoms: _391  and  _392
REMARK  164  A    between atoms: _395  and  _397
REMARK  165  A    between atoms: _397  and  _398
REMARK  166  A    between atoms: _397  and  _400
REMARK  167  A    between atoms: _400  and  _401
REMARK  168  A    between atoms: _401  and  _402
REMARK  169  A    between atoms: _402  and  _403
REMARK  170  A    between atoms: _403  and  _404
REMARK  171  A    between atoms: _408  and  _410
REMARK  172  A    between atoms: _410  and  _411
REMARK  173  A    between atoms: _410  and  _413
REMARK  174  A    between atoms: _413  and  _414
REMARK  175  A    between atoms: _417  and  _419
REMARK  176  A    between atoms: _419  and  _420
REMARK  177  A    between atoms: _419  and  _422
REMARK  178  A    between atoms: _425  and  _427
REMARK  179  A    between atoms: _427  and  _428
REMARK  180  A    between atoms: _430  and  _432
REMARK  181  A    between atoms: _432  and  _433
REMARK  182  A    between atoms: _435  and  _437
REMARK  183  A    between atoms: _437  and  _438
REMARK  184  A    between atoms: _437  and  _440
REMARK  185  A    between atoms: _440  and  _441
REMARK  186  A    between atoms: _444  and  _446
REMARK  187  A    between atoms: _446  and  _447
REMARK  188  A    between atoms: _449  and  _451
REMARK  189  A    between atoms: _451  and  _452
REMARK  190  A    between atoms: _454  and  _456
REMARK  191  A    between atoms: _456  and  _457
REMARK  192  A    between atoms: _456  and  _459
REMARK  193  A    between atoms: _459  and  _460
REMARK  194  A    between atoms: _466  and  _468
REMARK  195  A    between atoms: _468  and  _469
REMARK  196  A    between atoms: _468  and  _471
REMARK  197  A    between atoms: _471  and  _472
REMARK  198  A    between atoms: _475  and  _477
REMARK  199  A    between atoms: _477  and  _478
REMARK  200  A    between atoms: _477  and  _480
REMARK  201  A    between atoms: _480  and  _481
REMARK  202  A    between atoms: _484  and  _486
REMARK  203  A    between atoms: _486  and  _487
REMARK  204  A    between atoms: _486  and  _489
REMARK  205  A    between atoms: _489  and  _490
REMARK  206  A    between atoms: _490  and  _491
REMARK  207  A    between atoms: _493  and  _495
REMARK  208  A    between atoms: _495  and  _496
REMARK  209  A    between atoms: _495  and  _498
REMARK  210  A    between atoms: _498  and  _499
REMARK  211  A    between atoms: _503  and  _504
REMARK  212  A    between atoms: _509  and  _511
REMARK  213  A    between atoms: _511  and  _512
REMARK  214  A    between atoms: _511  and  _514
REMARK  215  A    between atoms: _514  and  _515
REMARK  216  A    between atoms: _518  and  _520
REMARK  217  A    between atoms: _520  and  _521
REMARK  218  A    between atoms: _520  and  _523
REMARK  219  A    between atoms: _523  and  _524
REMARK  220  A    between atoms: _529  and  _531
REMARK  221  A    between atoms: _531  and  _532
REMARK  222  A    between atoms: _531  and  _534
REMARK  223  A    between atoms: _534  and  _535
REMARK  224  A    between atoms: _538  and  _540
REMARK  225  A    between atoms: _540  and  _541
REMARK  226  A    between atoms: _540  and  _543
REMARK  227  A    between atoms: _543  and  _544
REMARK  228  A    between atoms: _550  and  _552
REMARK  229  A    between atoms: _552  and  _553
REMARK  230  A    between atoms: _555  and  _557
REMARK  231  A    between atoms: _557  and  _558
REMARK  232  A    between atoms: _557  and  _560
REMARK  233  A    between atoms: _560  and  _561
REMARK  234  A    between atoms: _561  and  _562
REMARK  235  A    between atoms: _562  and  _563
REMARK  236  A    between atoms: _572  and  _574
REMARK  237  A    between atoms: _574  and  _575
REMARK  238  A    between atoms: _574  and  _577
REMARK  239  A    between atoms: _577  and  _578
REMARK                            x       y       z     vdW  Elec       q    Type
REMARK                         _______ _______ _______ _____ _____    ______ ____
ROOT
ATOM      1  C   GLY A   5      14.783   4.639   4.460  0.00  0.00    +0.243 C 
ATOM      2  O   GLY A   5      14.585   5.021   5.618  0.00  0.00    -0.273 OA
ATOM      3  N   ALA A   6      15.718   3.748   4.167  0.00  0.00    -0.297 N 
ATOM      4  H   ALA A   6      15.824   3.411   3.189  0.00  0.00    +0.150 HD
ENDROOT
BRANCH   3   5
ATOM      5  CA  ALA A   6      16.604   3.234   5.217  0.00  0.00    +0.149 C 
ATOM      6  CB  ALA A   6      16.956   1.773   4.943  0.00  0.00    +0.031 C 
BRANCH   5   7
ATOM      7  C   ALA A   6      17.875   4.092   5.298  0.00  0.00    +0.241 C 
ATOM      8  N   ASP A   7      18.192   4.620   6.478  0.00  0.00    -0.297 N 
ATOM      9  H   ASP A   7      17.574   4.465   7.300  0.00  0.00    +0.150 HD
ATOM     10  O   ALA A   6      18.542   4.300   4.291  0.00  0.00    -0.273 OA
BRANCH   8  11
ATOM     11  CA  ASP A   7      19.414   5.421   6.618  0.00  0.00    +0.160 C 
BRANCH  11  12
ATOM     12  C   ASP A   7      20.624   4.499   6.546  0.00  0.00    +0.241 C 
ATOM     13  N   ASP A   8      20.456   3.273   7.041  0.00  0.00    -0.297 N 
ATOM     14  H   ASP A   8      19.521   3.011   7.413  0.00  0.00    +0.150 HD
ATOM     15  O   ASP A   7      21.683   4.894   6.063  0.00  0.00    -0.273 OA
BRANCH  13  16
ATOM     16  CA  ASP A   8      21.524   2.285   7.083  0.00  0.00    +0.160 C 
BRANCH  16  17
ATOM     17  C   ASP A   8      21.096   0.943   6.488  0.00  0.00    +0.241 C 
ATOM     18  N   SER A   9      22.025  -0.014   6.536  0.00  0.00    -0.295 N 
ATOM     19  H   SER A   9      22.887   0.165   7.090  0.00  0.00    +0.150 HD
ATOM     20  O   ASP A   8      19.946   0.759   6.047  0.00  0.00    -0.273 OA
BRANCH  18  21
ATOM     21  CA  SER A   9      21.899  -1.299   5.854  0.00  0.00    +0.178 C 
BRANCH  21  22
ATOM     22  C   SER A   9      22.020  -2.430   6.868  0.00  0.00    +0.243 C 
ATOM     23  O   SER A   9      22.856  -2.371   7.769  0.00  0.00    -0.273 OA
ATOM     24  N   ILE A  10      21.197  -3.461   6.697  0.00  0.00    -0.298 N 
ATOM     25  H   ILE A  10      20.594  -3.468   5.850  0.00  0.00    +0.150 HD
BRANCH  24  26
ATOM     26  CA  ILE A  10      21.088  -4.577   7.620  0.00  0.00    +0.137 C 
BRANCH  26  27
ATOM     27  C   ILE A  10      20.717  -5.839   6.822  0.00  0.00    +0.227 C 
ATOM     28  O   ILE A  10      19.756  -5.834   6.037  0.00  0.00    -0.286 OA
ENDBRANCH  26  27
BRANCH  26  29
ATOM     29  CB  ILE A  10      20.000  -4.307   8.695  0.00  0.00    +0.026 C 
ATOM     30  CG2 ILE A  10      18.687  -3.944   8.066  0.00  0.00    +0.002 C 
BRANCH  29  31
ATOM     31  CG1 ILE A  10      19.784  -5.540   9.550  0.00  0.00    +0.002 C 
ATOM     32  CD1 ILE A  10      19.232  -5.223  10.916  0.00  0.00    +0.000 C 
ENDBRANCH  29  31
ENDBRANCH  26  29
ENDBRANCH  24  26
ENDBRANCH  21  22
BRANCH  21  33
ATOM     33  CB  SER A   9      23.011  -1.453   4.810  0.00  0.00    +0.166 C 
BRANCH  33  34
ATOM     34  OG  SER A   9      22.920  -0.486   3.770  0.00  0.00    -0.380 OA
ATOM     35  H   SER A   9      22.989   0.422   4.158  0.00  0.00    +0.211 HD
ENDBRANCH  33  34
ENDBRANCH  21  33
ENDBRANCH  18  21
ENDBRANCH  16  17
BRANCH  16  36
ATOM     36  CB  ASP A   8      21.983   2.040   8.524  0.00  0.00    +0.143 C 
BRANCH  36  37
ATOM     37  CG  ASP A   8      22.293   3.316   9.274  0.00  0.00    +0.367 C 
ATOM     38  OD2 ASP A   8      21.762   3.492  10.393  0.00  0.00    -0.246 OA
ATOM     39  OD1 ASP A   8      23.131   4.098   8.784  0.00  0.00    -0.246 OA
ENDBRANCH  36  37
ENDBRANCH  16  36
ENDBRANCH  13  16
ENDBRANCH  11  12
BRANCH  11  40
ATOM     40  CB  ASP A   7      19.451   6.146   7.963  0.00  0.00    +0.143 C 
BRANCH  40  41
ATOM     41  CG  ASP A   7      18.351   7.153   8.123  0.00  0.00    +0.367 C 
ATOM     42  OD2 ASP A   7      17.748   7.173   9.207  0.00  0.00    -0.246 OA
ATOM     43  OD1 ASP A   7      18.182   8.010   7.237  0.00  0.00    -0.246 OA
ENDBRANCH  40  41
ENDBRANCH  11  40
ENDBRANCH   8  11
ENDBRANCH   5   7
ENDBRANCH   3   5
BRANCH   1  44
ATOM     44  CA  GLY A   5      13.927   5.170   3.315  0.00  0.00    +0.176 C 
BRANCH  44  46
ATOM     45  C   THR A   4      15.275   5.405   1.353  0.00  0.00    +0.243 C 
ATOM     46  N   GLY A   5      14.324   4.748   1.995  0.00  0.00    -0.295 N 
ATOM     47  H   GLY A   5      13.864   3.929   1.549  0.00  0.00    +0.150 HD
ATOM     48  O   THR A   4      15.820   6.400   1.819  0.00  0.00    -0.273 OA
BRANCH  45  49
ATOM     49  CA  THR A   4      15.672   4.879  -0.021  0.00  0.00    +0.176 C 
BRANCH  49  52
ATOM     50  C   ASP A   3      16.020   2.511   0.405  0.00  0.00    +0.241 C 
ATOM     51  O   ASP A   3      16.942   2.768   1.183  0.00  0.00    -0.273 OA
ATOM     52  N   THR A   4      15.347   3.471  -0.224  0.00  0.00    -0.295 N 
ATOM     53  H   THR A   4      14.575   3.213  -0.872  0.00  0.00    +0.150 HD
BRANCH  50  54
ATOM     54  CA  ASP A   3      15.581   1.049   0.134  0.00  0.00    +0.160 C 
BRANCH  54  56
ATOM     55  C   LEU A   2      16.200  -0.183  -1.871  0.00  0.00    +0.241 C 
ATOM     56  N   ASP A   3      16.550   0.396  -0.730  0.00  0.00    -0.297 N 
ATOM     57  H   ASP A   3      17.550   0.382  -0.445  0.00  0.00    +0.150 HD
ATOM     58  O   LEU A   2      15.174   0.106  -2.467  0.00  0.00    -0.273 OA
BRANCH  55  59
ATOM     59  CA  LEU A   2      17.173  -1.214  -2.429  0.00  0.00    +0.149 C 
BRANCH  59  62
ATOM     60  C   LEU A   1      16.601  -3.236  -1.239  0.00  0.00    +0.238 C 
ATOM     61  O   LEU A   1      17.112  -2.803  -0.205  0.00  0.00    -0.274 OA
ATOM     62  N   LEU A   2      16.587  -2.538  -2.369  0.00  0.00    -0.297 N 
ATOM     63  H   LEU A   2      16.151  -2.946  -3.220  0.00  0.00    +0.150 HD
BRANCH  60  64
ATOM     64  CA  LEU A   1      15.931  -4.623  -1.260  0.00  0.00    +0.145 C 
BRANCH  64  65
ATOM     65  N   LEU A   1      16.861  -5.658  -0.831  0.00  0.00    -0.238 NA
ATOM     66  H   LEU A   1      16.887  -5.924   0.174  0.00  0.00    +0.142 HD
ENDBRANCH  64  65
BRANCH  64  67
ATOM     67  CB  LEU A   1      14.708  -4.621  -0.349  0.00  0.00    +0.026 C 
BRANCH  67  68
ATOM     68  CG  LEU A   1      13.774  -3.448  -0.612  0.00  0.00    +0.002 C 
ATOM     69  CD2 LEU A   1      12.911  -3.205   0.597  0.00  0.00    +0.000 C 
ATOM     70  CD1 LEU A   1      12.928  -3.751  -1.838  0.00  0.00    +0.000 C 
ENDBRANCH  67  68
ENDBRANCH  64  67
ENDBRANCH  60  64
ENDBRANCH  59  62
BRANCH  59  71
ATOM     71  CB  LEU A   2      17.540  -0.879  -3.862  0.00  0.00    +0.029 C 
BRANCH  71  72
ATOM     72  CG  LEU A   2      18.435  -1.842  -4.656  0.00  0.00    +0.002 C 
ATOM     73  CD2 LEU A   2      19.813  -1.942  -4.028  0.00  0.00    +0.000 C 
ATOM     74  CD1 LEU A   2      18.541  -1.333  -6.110  0.00  0.00    +0.000 C 
ENDBRANCH  71  72
ENDBRANCH  59  71
ENDBRANCH  55  59
ENDBRANCH  54  56
BRANCH  54  75
ATOM     75  CB  ASP A   3      15.483   0.207   1.428  0.00  0.00    +0.143 C 
BRANCH  75  76
ATOM     76  CG  ASP A   3      14.406   0.688   2.394  0.00  0.00    +0.367 C 
ATOM     77  OD2 ASP A   3      14.188   0.027   3.412  0.00  0.00    -0.246 OA
ATOM     78  OD1 ASP A   3      13.816   1.755   2.198  0.00  0.00    -0.246 OA
ENDBRANCH  75  76
ENDBRANCH  54  75
ENDBRANCH  50  54
ENDBRANCH  49  52
BRANCH  49  79
ATOM     79  CB  THR A   4      15.016   5.774  -1.096  0.00  0.00    +0.137 C 
ATOM     80  CG2 THR A   4      15.642   5.517  -2.453  0.00  0.00    +0.034 C 
BRANCH  79  81
ATOM     81  OG1 THR A   4      13.611   5.512  -1.143  0.00  0.00    -0.382 OA
ATOM     82  HG1 THR A   4      13.210   5.709  -0.260  0.00  0.00    +0.210 HD
ENDBRANCH  79  81
ENDBRANCH  49  79
ENDBRANCH  45  49
ENDBRANCH  44  46
ENDBRANCH   1  44
TORSDOF 36
REMARK  Name = ../refined-set-2016/1hsh/1hsh_pocket.pdb
REMARK  239 active torsions:
REMARK  status: ('A' for Active; 'I' for Inactive)
REMARK    1  A    between atoms: _1  and  _3
REMARK    2  A    between atoms: _3  and  _4
REMARK    3  A    between atoms: _3  and  _6
REMARK    4  A    between atoms: _6  and  _7
REMARK    5  A    between atoms: _7  and  _8
REMARK    6  A    between atoms: _8  and  _9
REMARK    7  A    between atoms: _18  and  _20
REMARK    8  A    between atoms: _20  and  _21
REMARK    9  A    between atoms: _20  and  _23
REMARK   10  A    between atoms: _23  and  _24
REMARK   11  A    between atoms: _27  and  _29
REMARK   12  A    between atoms: _29  and  _30
REMARK   13  A    between atoms: _29  and  _32
REMARK   14  A    between atoms: _32  and  _33
REMARK   15  A    between atoms: _36  and  _38
REMARK   16  A    between atoms: _38  and  _39
REMARK   17  A    between atoms: _38  and  _41
REMARK   18  A    between atoms: _41  and  _42
REMARK   19  A    between atoms: _45  and  _47
REMARK   20  A    between atoms: _47  and  _48
REMARK   21  A    between atoms: _47  and  _50
REMARK   22  A    between atoms: _50  and  _51
REMARK   23  A    between atoms: _54  and  _56
REMARK   24  A    between atoms: _56  and  _57
REMARK   25  A    between atoms: _59  and  _61
REMARK   26  A    between atoms: _61  and  _62
REMARK   27  A    between atoms: _65  and  _67
REMARK   28  A    between atoms: _67  and  _68
REMARK   29  A    between atoms: _67  and  _70
REMARK   30  A    between atoms: _70  and  _71
REMARK   31  A    between atoms: _74  and  _76
REMARK   32  A    between atoms: _76  and  _77
REMARK   33  A    between atoms: _76  and  _79
REMARK   34  A    between atoms: _79  and  _80
REMARK   35  A    between atoms: _83  and  _85
REMARK   36  A    between atoms: _85  and  _86
REMARK   37  A    between atoms: _85  and  _88
REMARK   38  A    between atoms: _88  and  _89
REMARK   39  A    between atoms: _91  and  _93
REMARK   40  A    between atoms: _93  and  _94
REMARK   41  A    between atoms: _93  and  _96
REMARK   42  A    between atoms: _96  and  _97
REMARK   43  A    between atoms: _100  and  _102
REMARK   44  A    between atoms: _102  and  _103
REMARK   45  A    between atoms: _102  and  _105
REMARK   46  A    between atoms: _108  and  _110
REMARK   47  A    between atoms: _110  and  _111
REMARK   48  A    between atoms: _110  and  _113
REMARK   49  A    between atoms: _113  and  _114
REMARK   50  A    between atoms: _114  and  _115
REMARK   51  A    between atoms: _115  and  _116
REMARK   52  A    between atoms: _116  and  _117
REMARK   53  A    between atoms: _121  and  _123
REMARK   54  A    between atoms: _123  and  _124
REMARK   55  A    between atoms: _123  and  _126
REMARK   56  A    between atoms: _126  and  _127
REMARK   57  A    between atoms: _130  and  _132
REMARK   58  A    between atoms: _132  and  _133
REMARK   59  A    between atoms: _132  and  _135
REMARK   60  A    between atoms: _138  and  _140
REMARK   61  A    between atoms: _140  and  _141
REMARK   62  A    between atoms: _143  and  _145
REMARK   63  A    between atoms: _145  and  _146
REMARK   64  A    between atoms: _148  and  _150
REMARK   65  A    between atoms: _150  and  _151
REMARK   66  A    between atoms: _150  and  _153
REMARK   67  A    between atoms: _153  and  _154
REMARK   68  A    between atoms: _157  and  _159
REMARK   69  A    between atoms: _159  and  _160
REMARK   70  A    between atoms: _162  and  _164
REMARK   71  A    between atoms: _164  and  _165
REMARK   72  A    between atoms: _167  and  _169
REMARK   73  A    between atoms: _169  and  _170
REMARK   74  A    between atoms: _169  and  _172
REMARK   75  A    between atoms: _172  and  _173
REMARK   76  A    between atoms: _179  and  _181
REMARK   77  A    between atoms: _181  and  _182
REMARK   78  A    between atoms: _181  and  _184
REMARK   79  A    between atoms: _184  and  _185
REMARK   80  A    between atoms: _188  and  _190
REMARK   81  A    between atoms: _190  and  _191
REMARK   82  A    between atoms: _190  and  _193
REMARK   83  A    between atoms: _193  and  _194
REMARK   84  A    between atoms: _197  and  _199
REMARK   85  A    between atoms: _199  and  _200
REMARK   86  A    between atoms: _199  and  _202
REMARK   87  A    between atoms: _202  and  _203
REMARK   88  A    between atoms: _203  and  _204
REMARK   89  A    between atoms: _206  and  _208
REMARK   90  A    between atoms: _208  and  _209
REMARK   91  A    between atoms: _208  and  _211
REMARK   92  A    between atoms: _211  and  _212
REMARK   93  A    between atoms: _216  and  _217
REMARK   94  A    between atoms: _222  and  _224
REMARK   95  A    between atoms: _224  and  _225
REMARK   96  A    between atoms: _224  and  _227
REMARK   97  A    between atoms: _227  and  _228
REMARK   98  A    between atoms: _231  and  _233
REMARK   99  A    between atoms: _233  and  _234
REMARK  100  A    between atoms: _233  and  _236
REMARK  101  A    between atoms: _236  and  _237
REMARK  102  A    between atoms: _242  and  _244
REMARK  103  A    between atoms: _244  and  _245
REMARK  104  A    between atoms: _244  and  _247
REMARK  105  A    between atoms: _247  and  _248
REMARK  106  A    between atoms: _251  and  _253
REMARK  107  A    between atoms: _253  and  _254
REMARK  108  A    between atoms: _253  and  _256
REMARK  109  A    between atoms: _256  and  _257
REMARK  110  A    between atoms: _263  and  _265
REMARK  111  A    between atoms: _265  and  _266
REMARK  112  A    between atoms: _268  and  _270
REMARK  113  A    between atoms: _270  and  _271
REMARK  114  A    between atoms: _270  and  _273
REMARK  115  A    between atoms: _273  and  _274
REMARK  116  A    between atoms: _274  and  _275
REMARK  117  A    between atoms: _275  and  _276
REMARK  118  A    between atoms: _285  and  _287
REMARK  119  A    between atoms: _287  and  _288
REMARK  120  A    between atoms: _287  and  _290
REMARK  121  A    between atoms: _290  and  _291
REMARK  122  A    between atoms: _296  and  _298
REMARK  123  A    between atoms: _298  and  _299
REMARK  124  A    between atoms: _298  and  _301
REMARK  125  A    between atoms: _301  and  _302
REMARK  126  A    between atoms: _302  and  _303
REMARK  127  A    between atoms: _303  and  _304
REMARK  128  A    between atoms: _313  and  _315
REMARK  129  A    between atoms: _315  and  _316
REMARK  130  A    between atoms: _315  and  _318
REMARK  131  A    between atoms: _318  and  _319
REMARK  132  A    between atoms: _322  and  _324
REMARK  133  A    between atoms: _324  and  _325
REMARK  134  A    between atoms: _324  and  _327
REMARK  135  A    between atoms: _327  and  _328
REMARK  136  A    between atoms: _331  and  _333
REMARK  137  A    between atoms: _333  and  _334
REMARK  138  A    between atoms: _333  and  _336
REMARK  139  A    between atoms: _336  and  _337
REMARK  140  A    between atoms: _340  and  _342
REMARK  141  A    between atoms: _342  and  _343
REMARK  142  A    between atoms: _342  and  _345
REMARK  143  A    between atoms: _345  and  _346
REMARK  144  A    between atoms: _349  and  _351
REMARK  145  A    between atoms: _351  and  _352
REMARK  146  A    between atoms: _354  and  _356
REMARK  147  A    between atoms: _356  and  _357
REMARK  148  A    between atoms: _360  and  _362
REMARK  149  A    between atoms: _362  and  _363
REMARK  150  A    between atoms: _362  and  _365
REMARK  151  A    between atoms: _365  and  _366
REMARK  152  A    between atoms: _369  and  _371
REMARK  153  A    between atoms: _371  and  _372
REMARK  154  A    between atoms: _371  and  _374
REMARK  155  A    between atoms: _374  and  _375
REMARK  156  A    between atoms: _378  and  _380
REMARK  157  A    between atoms: _380  and  _381
REMARK  158  A    between atoms: _380  and  _383
REMARK  159  A    between atoms: _383  and  _384
REMARK  160  A    between atoms: _386  and  _388
REMARK  161  A    between atoms: _388  and  _389
REMARK  162  A    between atoms: _388  and  _391
REMARK  163  A    between atoms: _391  and  _392
REMARK  164  A    between atoms: _395  and  _397
REMARK  165  A    between atoms: _397  and  _398
REMARK  166  A    between atoms: _397  and  _400
REMARK  167  A    between atoms: _400  and  _401
REMARK  168  A    between atoms: _401  and  _402
REMARK  169  A    between atoms: _402  and  _403
REMARK  170  A    between atoms: _403  and  _404
REMARK  171  A    between atoms: _408  and  _410
REMARK  172  A    between atoms: _410  and  _411
REMARK  173  A    between atoms: _410  and  _413
REMARK  174  A    between atoms: _413  and  _414
REMARK  175  A    between atoms: _417  and  _419
REMARK  176  A    between atoms: _419  and  _420
REMARK  177  A    between atoms: _419  and  _422
REMARK  178  A    between atoms: _425  and  _427
REMARK  179  A    between atoms: _427  and  _428
REMARK  180  A    between atoms: _430  and  _432
REMARK  181  A    between atoms: _432  and  _433
REMARK  182  A    between atoms: _435  and  _437
REMARK  183  A    between atoms: _437  and  _438
REMARK  184  A    between atoms: _437  and  _440
REMARK  185  A    between atoms: _440  and  _441
REMARK  186  A    between atoms: _444  and  _446
REMARK  187  A    between atoms: _446  and  _447
REMARK  188  A    between atoms: _449  and  _451
REMARK  189  A    between atoms: _451  and  _452
REMARK  190  A    between atoms: _454  and  _456
REMARK  191  A    between atoms: _456  and  _457
REMARK  192  A    between atoms: _456  and  _459
REMARK  193  A    between atoms: _459  and  _460
REMARK  194  A    between atoms: _466  and  _468
REMARK  195  A    between atoms: _468  and  _469
REMARK  196  A    between atoms: _468  and  _471
REMARK  197  A    between atoms: _471  and  _472
REMARK  198  A    between atoms: _475  and  _477
REMARK  199  A    between atoms: _477  and  _478
REMARK  200  A    between atoms: _477  and  _480
REMARK  201  A    between atoms: _480  and  _481
REMARK  202  A    between atoms: _484  and  _486
REMARK  203  A    between atoms: _486  and  _487
REMARK  204  A    between atoms: _486  and  _489
REMARK  205  A    between atoms: _489  and  _490
REMARK  206  A    between atoms: _490  and  _491
REMARK  207  A    between atoms: _493  and  _495
REMARK  208  A    between atoms: _495  and  _496
REMARK  209  A    between atoms: _495  and  _498
REMARK  210  A    between atoms: _498  and  _499
REMARK  211  A    between atoms: _503  and  _504
REMARK  212  A    between atoms: _509  and  _511
REMARK  213  A    between atoms: _511  and  _512
REMARK  214  A    between atoms: _511  and  _514
REMARK  215  A    between atoms: _514  and  _515
REMARK  216  A    between atoms: _518  and  _520
REMARK  217  A    between atoms: _520  and  _521
REMARK  218  A    between atoms: _520  and  _523
REMARK  219  A    between atoms: _523  and  _524
REMARK  220  A    between atoms: _529  and  _531
REMARK  221  A    between atoms: _531  and  _532
REMARK  222  A    between atoms: _531  and  _534
REMARK  223  A    between atoms: _534  and  _535
REMARK  224  A    between atoms: _538  and  _540
REMARK  225  A    between atoms: _540  and  _541
REMARK  226  A    between atoms: _540  and  _543
REMARK  227  A    between atoms: _543  and  _544
REMARK  228  A    between atoms: _550  and  _552
REMARK  229  A    between atoms: _552  and  _553
REMARK  230  A    between atoms: _555  and  _557
REMARK  231  A    between atoms: _557  and  _558
REMARK  232  A    between atoms: _557  and  _560
REMARK  233  A    between atoms: _560  and  _561
REMARK  234  A    between atoms: _561  and  _562
REMARK  235  A    between atoms: _562  and  _563
REMARK  236  A    between atoms: _572  and  _574
REMARK  237  A    between atoms: _574  and  _575
REMARK  238  A    between atoms: _574  and  _577
REMARK  239  A    between atoms: _577  and  _578
REMARK                            x       y       z     vdW  Elec       q    Type
REMARK                         _______ _______ _______ _____ _____    ______ ____
ROOT
ATOM      1  C   GLY A   5      11.107   0.903  12.759  0.00  0.00    +0.243 C 
ATOM      2  O   GLY A   5      10.857   1.405  13.859  0.00  0.00    -0.273 OA
ATOM      3  N   ILE A   6      10.168   0.689  11.848  0.00  0.00    -0.297 N 
ATOM      4  H   ILE A   6      10.396   0.172  10.975  0.00  0.00    +0.150 HD
ENDROOT
BRANCH   3   5
ATOM      5  CA  ILE A   6       8.821   1.178  12.073  0.00  0.00    +0.149 C 
BRANCH   5   6
ATOM      6  C   ILE A   6       8.050   0.389  13.155  0.00  0.00    +0.241 C 
ATOM      7  O   ILE A   6       7.090   0.903  13.742  0.00  0.00    -0.273 OA
ATOM      8  N   GLY A   7       8.491  -0.834  13.445  0.00  0.00    -0.295 N 
ATOM      9  H   GLY A   7       9.303  -1.227  12.927  0.00  0.00    +0.150 HD
BRANCH   8  10
ATOM     10  CA  GLY A   7       7.844  -1.623  14.481  0.00  0.00    +0.176 C 
BRANCH  10  11
ATOM     11  C   GLY A   7       8.452  -1.463  15.868  0.00  0.00    +0.243 C 
ATOM     12  O   GLY A   7       7.841  -1.855  16.861  0.00  0.00    -0.273 OA
ATOM     13  N   GLY A   8       9.667  -0.920  15.937  0.00  0.00    -0.295 N 
ATOM     14  H   GLY A   8      10.113  -0.562  15.069  0.00  0.00    +0.150 HD
BRANCH  13  15
ATOM     15  CA  GLY A   8      10.384  -0.816  17.200  0.00  0.00    +0.176 C 
BRANCH  15  16
ATOM     16  C   GLY A   8      11.881  -1.019  17.044  0.00  0.00    +0.243 C 
ATOM     17  N   PHE A   9      12.528  -1.401  18.138  0.00  0.00    -0.297 N 
ATOM     18  H   PHE A   9      11.981  -1.776  18.939  0.00  0.00    +0.150 HD
ATOM     19  O   GLY A   8      12.435  -0.884  15.948  0.00  0.00    -0.273 OA
BRANCH  17  20
ATOM     20  CA  PHE A   9      13.986  -1.313  18.257  0.00  0.00    +0.153 C 
BRANCH  20  21
ATOM     21  C   PHE A   9      14.588  -2.716  18.309  0.00  0.00    +0.241 C 
ATOM     22  O   PHE A   9      14.108  -3.544  19.090  0.00  0.00    -0.273 OA
ATOM     23  N   ILE A  10      15.640  -2.964  17.513  0.00  0.00    -0.298 N 
ATOM     24  H   ILE A  10      15.973  -2.213  16.875  0.00  0.00    +0.150 HD
BRANCH  23  25
ATOM     25  CA  ILE A  10      16.339  -4.256  17.510  0.00  0.00    +0.137 C 
BRANCH  25  26
ATOM     26  C   ILE A  10      17.847  -4.125  17.740  0.00  0.00    +0.227 C 
ATOM     27  O   ILE A  10      18.450  -3.106  17.409  0.00  0.00    -0.286 OA
ENDBRANCH  25  26
BRANCH  25  28
ATOM     28  CB  ILE A  10      16.126  -5.038  16.168  0.00  0.00    +0.026 C 
ATOM     29  CG2 ILE A  10      14.658  -5.378  15.980  0.00  0.00    +0.002 C 
BRANCH  28  30
ATOM     30  CG1 ILE A  10      16.628  -4.202  14.989  0.00  0.00    +0.002 C 
ATOM     31  CD1 ILE A  10      16.884  -4.982  13.719  0.00  0.00    +0.000 C 
ENDBRANCH  28  30
ENDBRANCH  25  28
ENDBRANCH  23  25
ENDBRANCH  20  21
BRANCH  20  32
ATOM     32  CB  PHE A   9      14.361  -0.556  19.551  0.00  0.00    +0.055 C 
BRANCH  32  33
ATOM     33  CG  PHE A   9      14.403   0.948  19.391  0.00  0.00    -0.020 A 
ATOM     34  CD2 PHE A   9      13.402   1.737  19.917  0.00  0.00    -0.004 A 
ATOM     35  CE2 PHE A   9      13.379   3.102  19.654  0.00  0.00    -0.000 A 
ATOM     36  CZ  PHE A   9      14.358   3.672  18.876  0.00  0.00    -0.000 A 
ATOM     37  CE1 PHE A   9      15.368   2.906  18.370  0.00  0.00    -0.000 A 
ATOM     38  CD1 PHE A   9      15.394   1.558  18.625  0.00  0.00    -0.004 A 
ENDBRANCH  32  33
ENDBRANCH  20  32
ENDBRANCH  17  20
ENDBRANCH  15  16
ENDBRANCH  13  15
ENDBRANCH  10  11
ENDBRANCH   8  10
ENDBRANCH   5   6
BRANCH   5  39
ATOM     39  CB  ILE A   6       8.034   1.235  10.745  0.00  0.00    +0.027 C 
ATOM     40  CG2 ILE A   6       7.521  -0.146  10.359  0.00  0.00    +0.002 C 
BRANCH  39  41
ATOM     41  CG1 ILE A   6       6.882   2.222  10.884  0.00  0.00    +0.002 C 
ATOM     42  CD1 ILE A   6       6.207   2.554   9.587  0.00  0.00    +0.000 C 
ENDBRANCH  39  41
ENDBRANCH   5  39
ENDBRANCH   3   5
BRANCH   1  43
ATOM     43  CA  GLY A   5      12.509   0.454  12.412  0.00  0.00    +0.176 C 
BRANCH  43  45
ATOM     44  C   GLY A   4      14.188   1.537  13.769  0.00  0.00    +0.243 C 
ATOM     45  N   GLY A   5      13.358   0.516  13.585  0.00  0.00    -0.295 N 
ATOM     46  H   GLY A   5      13.317  -0.247  14.290  0.00  0.00    +0.150 HD
ATOM     47  O   GLY A   4      14.553   2.273  12.848  0.00  0.00    -0.273 OA
BRANCH  44  48
ATOM     48  CA  GLY A   4      14.898   1.573  15.107  0.00  0.00    +0.176 C 
BRANCH  48  51
ATOM     49  C   VAL A   3      16.947   0.317  15.440  0.00  0.00    +0.241 C 
ATOM     50  O   VAL A   3      16.344  -0.618  15.984  0.00  0.00    -0.273 OA
ATOM     51  N   GLY A   4      16.329   1.398  14.972  0.00  0.00    -0.295 N 
ATOM     52  H   GLY A   4      16.888   2.136  14.497  0.00  0.00    +0.150 HD
BRANCH  49  53
ATOM     53  CA  VAL A   3      18.485   0.313  15.311  0.00  0.00    +0.149 C 
BRANCH  53  56
ATOM     54  C   ILE A   2      20.063   0.235  17.175  0.00  0.00    +0.241 C 
ATOM     55  O   ILE A   2      20.518   1.358  16.926  0.00  0.00    -0.273 OA
ATOM     56  N   VAL A   3      19.076  -0.321  16.482  0.00  0.00    -0.297 N 
ATOM     57  H   VAL A   3      18.710  -1.246  16.787  0.00  0.00    +0.150 HD
BRANCH  54  58
ATOM     58  CA  ILE A   2      20.654  -0.628  18.288  0.00  0.00    +0.148 C 
BRANCH  58  60
ATOM     59  C   LYS A   1      22.870  -1.460  17.777  0.00  0.00    +0.238 C 
ATOM     60  N   ILE A   2      22.111  -0.510  18.315  0.00  0.00    -0.297 N 
ATOM     61  H   ILE A   2      22.555   0.320  18.757  0.00  0.00    +0.150 HD
ATOM     62  O   LYS A   1      22.408  -2.528  17.400  0.00  0.00    -0.274 OA
BRANCH  59  63
ATOM     63  CA  LYS A   1      24.366  -1.216  17.695  0.00  0.00    +0.145 C 
BRANCH  63  64
ATOM     64  N   LYS A   1      25.008  -2.440  18.111  0.00  0.00    -0.238 NA
ATOM     65  H   LYS A   1      24.553  -3.352  17.902  0.00  0.00    +0.142 HD
ENDBRANCH  63  64
BRANCH  63  66
ATOM     66  CB  LYS A   1      24.792  -0.900  16.266  0.00  0.00    +0.026 C 
BRANCH  66  67
ATOM     67  CG  LYS A   1      24.832   0.568  15.959  0.00  0.00    -0.000 C 
BRANCH  67  68
ATOM     68  CD  LYS A   1      24.155   0.866  14.631  0.00  0.00    -0.024 C 
BRANCH  68  69
ATOM     69  CE  LYS A   1      23.532   2.266  14.590  0.00  0.00    -0.086 C 
BRANCH  69  70
ATOM     70  NZ  LYS A   1      23.241   2.727  13.183  0.00  0.00    +0.380 N 
ATOM     71  HZ1 LYS A   1      22.821   3.678  13.211  0.00  0.00    -0.089 HD
ATOM     72  HZ2 LYS A   1      22.576   2.066  12.734  0.00  0.00    -0.089 HD
ATOM     73  HZ3 LYS A   1      24.126   2.753  12.638  0.00  0.00    -0.089 HD
ENDBRANCH  69  70
ENDBRANCH  68  69
ENDBRANCH  67  68
ENDBRANCH  66  67
ENDBRANCH  63  66
ENDBRANCH  59  63
ENDBRANCH  58  60
BRANCH  58  74
ATOM     74  CB  ILE A   2      20.015  -0.295  19.674  0.00  0.00    +0.027 C 
ATOM     75  CG2 ILE A   2      18.652   0.376  19.517  0.00  0.00    +0.002 C 
BRANCH  74  76
ATOM     76  CG1 ILE A   2      19.835  -1.589  20.481  0.00  0.00    +0.002 C 
ATOM     77  CD1 ILE A   2      20.215  -1.461  21.939  0.00  0.00    +0.000 C 
ENDBRANCH  74  76
ENDBRANCH  58  74
ENDBRANCH  54  58
ENDBRANCH  53  56
BRANCH  53  78
ATOM     78  CB  VAL A   3      18.976  -0.411  14.003  0.00  0.00    +0.027 C 
ATOM     79  CG2 VAL A   3      18.268  -1.722  13.825  0.00  0.00    +0.002 C 
ATOM     80  CG1 VAL A   3      18.763   0.450  12.793  0.00  0.00    +0.002 C 
ENDBRANCH  53  78
ENDBRANCH  49  53
ENDBRANCH  48  51
ENDBRANCH  44  48
ENDBRANCH  43  45
ENDBRANCH   1  43
TORSDOF 34
REMARK  Name = ../refined-set-2016/1hsh/1hsh_pocket.pdb
REMARK  239 active torsions:
REMARK  status: ('A' for Active; 'I' for Inactive)
REMARK    1  A    between atoms: _1  and  _3
REMARK    2  A    between atoms: _3  and  _4
REMARK    3  A    between atoms: _3  and  _6
REMARK    4  A    between atoms: _6  and  _7
REMARK    5  A    between atoms: _7  and  _8
REMARK    6  A    between atoms: _8  and  _9
REMARK    7  A    between atoms: _18  and  _20
REMARK    8  A    between atoms: _20  and  _21
REMARK    9  A    between atoms: _20  and  _23
REMARK   10  A    between atoms: _23  and  _24
REMARK   11  A    between atoms: _27  and  _29
REMARK   12  A    between atoms: _29  and  _30
REMARK   13  A    between atoms: _29  and  _32
REMARK   14  A    between atoms: _32  and  _33
REMARK   15  A    between atoms: _36  and  _38
REMARK   16  A    between atoms: _38  and  _39
REMARK   17  A    between atoms: _38  and  _41
REMARK   18  A    between atoms: _41  and  _42
REMARK   19  A    between atoms: _45  and  _47
REMARK   20  A    between atoms: _47  and  _48
REMARK   21  A    between atoms: _47  and  _50
REMARK   22  A    between atoms: _50  and  _51
REMARK   23  A    between atoms: _54  and  _56
REMARK   24  A    between atoms: _56  and  _57
REMARK   25  A    between atoms: _59  and  _61
REMARK   26  A    between atoms: _61  and  _62
REMARK   27  A    between atoms: _65  and  _67
REMARK   28  A    between atoms: _67  and  _68
REMARK   29  A    between atoms: _67  and  _70
REMARK   30  A    between atoms: _70  and  _71
REMARK   31  A    between atoms: _74  and  _76
REMARK   32  A    between atoms: _76  and  _77
REMARK   33  A    between atoms: _76  and  _79
REMARK   34  A    between atoms: _79  and  _80
REMARK   35  A    between atoms: _83  and  _85
REMARK   36  A    between atoms: _85  and  _86
REMARK   37  A    between atoms: _85  and  _88
REMARK   38  A    between atoms: _88  and  _89
REMARK   39  A    between atoms: _91  and  _93
REMARK   40  A    between atoms: _93  and  _94
REMARK   41  A    between atoms: _93  and  _96
REMARK   42  A    between atoms: _96  and  _97
REMARK   43  A    between atoms: _100  and  _102
REMARK   44  A    between atoms: _102  and  _103
REMARK   45  A    between atoms: _102  and  _105
REMARK   46  A    between atoms: _108  and  _110
REMARK   47  A    between atoms: _110  and  _111
REMARK   48  A    between atoms: _110  and  _113
REMARK   49  A    between atoms: _113  and  _114
REMARK   50  A    between atoms: _114  and  _115
REMARK   51  A    between atoms: _115  and  _116
REMARK   52  A    between atoms: _116  and  _117
REMARK   53  A    between atoms: _121  and  _123
REMARK   54  A    between atoms: _123  and  _124
REMARK   55  A    between atoms: _123  and  _126
REMARK   56  A    between atoms: _126  and  _127
REMARK   57  A    between atoms: _130  and  _132
REMARK   58  A    between atoms: _132  and  _133
REMARK   59  A    between atoms: _132  and  _135
REMARK   60  A    between atoms: _138  and  _140
REMARK   61  A    between atoms: _140  and  _141
REMARK   62  A    between atoms: _143  and  _145
REMARK   63  A    between atoms: _145  and  _146
REMARK   64  A    between atoms: _148  and  _150
REMARK   65  A    between atoms: _150  and  _151
REMARK   66  A    between atoms: _150  and  _153
REMARK   67  A    between atoms: _153  and  _154
REMARK   68  A    between atoms: _157  and  _159
REMARK   69  A    between atoms: _159  and  _160
REMARK   70  A    between atoms: _162  and  _164
REMARK   71  A    between atoms: _164  and  _165
REMARK   72  A    between atoms: _167  and  _169
REMARK   73  A    between atoms: _169  and  _170
REMARK   74  A    between atoms: _169  and  _172
REMARK   75  A    between atoms: _172  and  _173
REMARK   76  A    between atoms: _179  and  _181
REMARK   77  A    between atoms: _181  and  _182
REMARK   78  A    between atoms: _181  and  _184
REMARK   79  A    between atoms: _184  and  _185
REMARK   80  A    between atoms: _188  and  _190
REMARK   81  A    between atoms: _190  and  _191
REMARK   82  A    between atoms: _190  and  _193
REMARK   83  A    between atoms: _193  and  _194
REMARK   84  A    between atoms: _197  and  _199
REMARK   85  A    between atoms: _199  and  _200
REMARK   86  A    between atoms: _199  and  _202
REMARK   87  A    between atoms: _202  and  _203
REMARK   88  A    between atoms: _203  and  _204
REMARK   89  A    between atoms: _206  and  _208
REMARK   90  A    between atoms: _208  and  _209
REMARK   91  A    between atoms: _208  and  _211
REMARK   92  A    between atoms: _211  and  _212
REMARK   93  A    between atoms: _216  and  _217
REMARK   94  A    between atoms: _222  and  _224
REMARK   95  A    between atoms: _224  and  _225
REMARK   96  A    between atoms: _224  and  _227
REMARK   97  A    between atoms: _227  and  _228
REMARK   98  A    between atoms: _231  and  _233
REMARK   99  A    between atoms: _233  and  _234
REMARK  100  A    between atoms: _233  and  _236
REMARK  101  A    between atoms: _236  and  _237
REMARK  102  A    between atoms: _242  and  _244
REMARK  103  A    between atoms: _244  and  _245
REMARK  104  A    between atoms: _244  and  _247
REMARK  105  A    between atoms: _247  and  _248
REMARK  106  A    between atoms: _251  and  _253
REMARK  107  A    between atoms: _253  and  _254
REMARK  108  A    between atoms: _253  and  _256
REMARK  109  A    between atoms: _256  and  _257
REMARK  110  A    between atoms: _263  and  _265
REMARK  111  A    between atoms: _265  and  _266
REMARK  112  A    between atoms: _268  and  _270
REMARK  113  A    between atoms: _270  and  _271
REMARK  114  A    between atoms: _270  and  _273
REMARK  115  A    between atoms: _273  and  _274
REMARK  116  A    between atoms: _274  and  _275
REMARK  117  A    between atoms: _275  and  _276
REMARK  118  A    between atoms: _285  and  _287
REMARK  119  A    between atoms: _287  and  _288
REMARK  120  A    between atoms: _287  and  _290
REMARK  121  A    between atoms: _290  and  _291
REMARK  122  A    between atoms: _296  and  _298
REMARK  123  A    between atoms: _298  and  _299
REMARK  124  A    between atoms: _298  and  _301
REMARK  125  A    between atoms: _301  and  _302
REMARK  126  A    between atoms: _302  and  _303
REMARK  127  A    between atoms: _303  and  _304
REMARK  128  A    between atoms: _313  and  _315
REMARK  129  A    between atoms: _315  and  _316
REMARK  130  A    between atoms: _315  and  _318
REMARK  131  A    between atoms: _318  and  _319
REMARK  132  A    between atoms: _322  and  _324
REMARK  133  A    between atoms: _324  and  _325
REMARK  134  A    between atoms: _324  and  _327
REMARK  135  A    between atoms: _327  and  _328
REMARK  136  A    between atoms: _331  and  _333
REMARK  137  A    between atoms: _333  and  _334
REMARK  138  A    between atoms: _333  and  _336
REMARK  139  A    between atoms: _336  and  _337
REMARK  140  A    between atoms: _340  and  _342
REMARK  141  A    between atoms: _342  and  _343
REMARK  142  A    between atoms: _342  and  _345
REMARK  143  A    between atoms: _345  and  _346
REMARK  144  A    between atoms: _349  and  _351
REMARK  145  A    between atoms: _351  and  _352
REMARK  146  A    between atoms: _354  and  _356
REMARK  147  A    between atoms: _356  and  _357
REMARK  148  A    between atoms: _360  and  _362
REMARK  149  A    between atoms: _362  and  _363
REMARK  150  A    between atoms: _362  and  _365
REMARK  151  A    between atoms: _365  and  _366
REMARK  152  A    between atoms: _369  and  _371
REMARK  153  A    between atoms: _371  and  _372
REMARK  154  A    between atoms: _371  and  _374
REMARK  155  A    between atoms: _374  and  _375
REMARK  156  A    between atoms: _378  and  _380
REMARK  157  A    between atoms: _380  and  _381
REMARK  158  A    between atoms: _380  and  _383
REMARK  159  A    between atoms: _383  and  _384
REMARK  160  A    between atoms: _386  and  _388
REMARK  161  A    between atoms: _388  and  _389
REMARK  162  A    between atoms: _388  and  _391
REMARK  163  A    between atoms: _391  and  _392
REMARK  164  A    between atoms: _395  and  _397
REMARK  165  A    between atoms: _397  and  _398
REMARK  166  A    between atoms: _397  and  _400
REMARK  167  A    between atoms: _400  and  _401
REMARK  168  A    between atoms: _401  and  _402
REMARK  169  A    between atoms: _402  and  _403
REMARK  170  A    between atoms: _403  and  _404
REMARK  171  A    between atoms: _408  and  _410
REMARK  172  A    between atoms: _410  and  _411
REMARK  173  A    between atoms: _410  and  _413
REMARK  174  A    between atoms: _413  and  _414
REMARK  175  A    between atoms: _417  and  _419
REMARK  176  A    between atoms: _419  and  _420
REMARK  177  A    between atoms: _419  and  _422
REMARK  178  A    between atoms: _425  and  _427
REMARK  179  A    between atoms: _427  and  _428
REMARK  180  A    between atoms: _430  and  _432
REMARK  181  A    between atoms: _432  and  _433
REMARK  182  A    between atoms: _435  and  _437
REMARK  183  A    between atoms: _437  and  _438
REMARK  184  A    between atoms: _437  and  _440
REMARK  185  A    between atoms: _440  and  _441
REMARK  186  A    between atoms: _444  and  _446
REMARK  187  A    between atoms: _446  and  _447
REMARK  188  A    between atoms: _449  and  _451
REMARK  189  A    between atoms: _451  and  _452
REMARK  190  A    between atoms: _454  and  _456
REMARK  191  A    between atoms: _456  and  _457
REMARK  192  A    between atoms: _456  and  _459
REMARK  193  A    between atoms: _459  and  _460
REMARK  194  A    between atoms: _466  and  _468
REMARK  195  A    between atoms: _468  and  _469
REMARK  196  A    between atoms: _468  and  _471
REMARK  197  A    between atoms: _471  and  _472
REMARK  198  A    between atoms: _475  and  _477
REMARK  199  A    between atoms: _477  and  _478
REMARK  200  A    between atoms: _477  and  _480
REMARK  201  A    between atoms: _480  and  _481
REMARK  202  A    between atoms: _484  and  _486
REMARK  203  A    between atoms: _486  and  _487
REMARK  204  A    between atoms: _486  and  _489
REMARK  205  A    between atoms: _489  and  _490
REMARK  206  A    between atoms: _490  and  _491
REMARK  207  A    between atoms: _493  and  _495
REMARK  208  A    between atoms: _495  and  _496
REMARK  209  A    between atoms: _495  and  _498
REMARK  210  A    between atoms: _498  and  _499
REMARK  211  A    between atoms: _503  and  _504
REMARK  212  A    between atoms: _509  and  _511
REMARK  213  A    between atoms: _511  and  _512
REMARK  214  A    between atoms: _511  and  _514
REMARK  215  A    between atoms: _514  and  _515
REMARK  216  A    between atoms: _518  and  _520
REMARK  217  A    between atoms: _520  and  _521
REMARK  218  A    between atoms: _520  and  _523
REMARK  219  A    between atoms: _523  and  _524
REMARK  220  A    between atoms: _529  and  _531
REMARK  221  A    between atoms: _531  and  _532
REMARK  222  A    between atoms: _531  and  _534
REMARK  223  A    between atoms: _534  and  _535
REMARK  224  A    between atoms: _538  and  _540
REMARK  225  A    between atoms: _540  and  _541
REMARK  226  A    between atoms: _540  and  _543
REMARK  227  A    between atoms: _543  and  _544
REMARK  228  A    between atoms: _550  and  _552
REMARK  229  A    between atoms: _552  and  _553
REMARK  230  A    between atoms: _555  and  _557
REMARK  231  A    between atoms: _557  and  _558
REMARK  232  A    between atoms: _557  and  _560
REMARK  233  A    between atoms: _560  and  _561
REMARK  234  A    between atoms: _561  and  _562
REMARK  235  A    between atoms: _562  and  _563
REMARK  236  A    between atoms: _572  and  _574
REMARK  237  A    between atoms: _574  and  _575
REMARK  238  A    between atoms: _574  and  _577
REMARK  239  A    between atoms: _577  and  _578
REMARK                            x       y       z     vdW  Elec       q    Type
REMARK                         _______ _______ _______ _____ _____    ______ ____
ROOT
ATOM      1  CA  THR A   1      22.429  -5.543  15.493  0.00  0.00    +0.160 C 
ENDROOT
BRANCH   1   2
ATOM      2  N   THR A   1      21.696  -5.123  16.700  0.00  0.00    -0.237 NA
ATOM      3  H   THR A   1      22.079  -4.351  17.282  0.00  0.00    +0.142 HD
ENDBRANCH   1   2
BRANCH   1   4
ATOM      4  C   THR A   1      23.963  -5.574  15.726  0.00  0.00    +0.227 C 
ATOM      5  O   THR A   1      24.472  -5.055  16.730  0.00  0.00    -0.287 OA
ENDBRANCH   1   4
BRANCH   1   6
ATOM      6  CB  THR A   1      22.114  -4.601  14.281  0.00  0.00    +0.134 C 
ATOM      7  CG2 THR A   1      20.641  -4.533  14.017  0.00  0.00    +0.034 C 
BRANCH   6   8
ATOM      8  OG1 THR A   1      22.560  -3.262  14.551  0.00  0.00    -0.383 OA
ATOM      9  HG1 THR A   1      22.097  -2.917  15.355  0.00  0.00    +0.210 HD
ENDBRANCH   6   8
ENDBRANCH   1   6
TORSDOF 4
REMARK  Name = ../refined-set-2016/1hsh/1hsh_pocket.pdb
REMARK  239 active torsions:
REMARK  status: ('A' for Active; 'I' for Inactive)
REMARK    1  A    between atoms: _1  and  _3
REMARK    2  A    between atoms: _3  and  _4
REMARK    3  A    between atoms: _3  and  _6
REMARK    4  A    between atoms: _6  and  _7
REMARK    5  A    between atoms: _7  and  _8
REMARK    6  A    between atoms: _8  and  _9
REMARK    7  A    between atoms: _18  and  _20
REMARK    8  A    between atoms: _20  and  _21
REMARK    9  A    between atoms: _20  and  _23
REMARK   10  A    between atoms: _23  and  _24
REMARK   11  A    between atoms: _27  and  _29
REMARK   12  A    between atoms: _29  and  _30
REMARK   13  A    between atoms: _29  and  _32
REMARK   14  A    between atoms: _32  and  _33
REMARK   15  A    between atoms: _36  and  _38
REMARK   16  A    between atoms: _38  and  _39
REMARK   17  A    between atoms: _38  and  _41
REMARK   18  A    between atoms: _41  and  _42
REMARK   19  A    between atoms: _45  and  _47
REMARK   20  A    between atoms: _47  and  _48
REMARK   21  A    between atoms: _47  and  _50
REMARK   22  A    between atoms: _50  and  _51
REMARK   23  A    between atoms: _54  and  _56
REMARK   24  A    between atoms: _56  and  _57
REMARK   25  A    between atoms: _59  and  _61
REMARK   26  A    between atoms: _61  and  _62
REMARK   27  A    between atoms: _65  and  _67
REMARK   28  A    between atoms: _67  and  _68
REMARK   29  A    between atoms: _67  and  _70
REMARK   30  A    between atoms: _70  and  _71
REMARK   31  A    between atoms: _74  and  _76
REMARK   32  A    between atoms: _76  and  _77
REMARK   33  A    between atoms: _76  and  _79
REMARK   34  A    between atoms: _79  and  _80
REMARK   35  A    between atoms: _83  and  _85
REMARK   36  A    between atoms: _85  and  _86
REMARK   37  A    between atoms: _85  and  _88
REMARK   38  A    between atoms: _88  and  _89
REMARK   39  A    between atoms: _91  and  _93
REMARK   40  A    between atoms: _93  and  _94
REMARK   41  A    between atoms: _93  and  _96
REMARK   42  A    between atoms: _96  and  _97
REMARK   43  A    between atoms: _100  and  _102
REMARK   44  A    between atoms: _102  and  _103
REMARK   45  A    between atoms: _102  and  _105
REMARK   46  A    between atoms: _108  and  _110
REMARK   47  A    between atoms: _110  and  _111
REMARK   48  A    between atoms: _110  and  _113
REMARK   49  A    between atoms: _113  and  _114
REMARK   50  A    between atoms: _114  and  _115
REMARK   51  A    between atoms: _115  and  _116
REMARK   52  A    between atoms: _116  and  _117
REMARK   53  A    between atoms: _121  and  _123
REMARK   54  A    between atoms: _123  and  _124
REMARK   55  A    between atoms: _123  and  _126
REMARK   56  A    between atoms: _126  and  _127
REMARK   57  A    between atoms: _130  and  _132
REMARK   58  A    between atoms: _132  and  _133
REMARK   59  A    between atoms: _132  and  _135
REMARK   60  A    between atoms: _138  and  _140
REMARK   61  A    between atoms: _140  and  _141
REMARK   62  A    between atoms: _143  and  _145
REMARK   63  A    between atoms: _145  and  _146
REMARK   64  A    between atoms: _148  and  _150
REMARK   65  A    between atoms: _150  and  _151
REMARK   66  A    between atoms: _150  and  _153
REMARK   67  A    between atoms: _153  and  _154
REMARK   68  A    between atoms: _157  and  _159
REMARK   69  A    between atoms: _159  and  _160
REMARK   70  A    between atoms: _162  and  _164
REMARK   71  A    between atoms: _164  and  _165
REMARK   72  A    between atoms: _167  and  _169
REMARK   73  A    between atoms: _169  and  _170
REMARK   74  A    between atoms: _169  and  _172
REMARK   75  A    between atoms: _172  and  _173
REMARK   76  A    between atoms: _179  and  _181
REMARK   77  A    between atoms: _181  and  _182
REMARK   78  A    between atoms: _181  and  _184
REMARK   79  A    between atoms: _184  and  _185
REMARK   80  A    between atoms: _188  and  _190
REMARK   81  A    between atoms: _190  and  _191
REMARK   82  A    between atoms: _190  and  _193
REMARK   83  A    between atoms: _193  and  _194
REMARK   84  A    between atoms: _197  and  _199
REMARK   85  A    between atoms: _199  and  _200
REMARK   86  A    between atoms: _199  and  _202
REMARK   87  A    between atoms: _202  and  _203
REMARK   88  A    between atoms: _203  and  _204
REMARK   89  A    between atoms: _206  and  _208
REMARK   90  A    between atoms: _208  and  _209
REMARK   91  A    between atoms: _208  and  _211
REMARK   92  A    between atoms: _211  and  _212
REMARK   93  A    between atoms: _216  and  _217
REMARK   94  A    between atoms: _222  and  _224
REMARK   95  A    between atoms: _224  and  _225
REMARK   96  A    between atoms: _224  and  _227
REMARK   97  A    between atoms: _227  and  _228
REMARK   98  A    between atoms: _231  and  _233
REMARK   99  A    between atoms: _233  and  _234
REMARK  100  A    between atoms: _233  and  _236
REMARK  101  A    between atoms: _236  and  _237
REMARK  102  A    between atoms: _242  and  _244
REMARK  103  A    between atoms: _244  and  _245
REMARK  104  A    between atoms: _244  and  _247
REMARK  105  A    between atoms: _247  and  _248
REMARK  106  A    between atoms: _251  and  _253
REMARK  107  A    between atoms: _253  and  _254
REMARK  108  A    between atoms: _253  and  _256
REMARK  109  A    between atoms: _256  and  _257
REMARK  110  A    between atoms: _263  and  _265
REMARK  111  A    between atoms: _265  and  _266
REMARK  112  A    between atoms: _268  and  _270
REMARK  113  A    between atoms: _270  and  _271
REMARK  114  A    between atoms: _270  and  _273
REMARK  115  A    between atoms: _273  and  _274
REMARK  116  A    between atoms: _274  and  _275
REMARK  117  A    between atoms: _275  and  _276
REMARK  118  A    between atoms: _285  and  _287
REMARK  119  A    between atoms: _287  and  _288
REMARK  120  A    between atoms: _287  and  _290
REMARK  121  A    between atoms: _290  and  _291
REMARK  122  A    between atoms: _296  and  _298
REMARK  123  A    between atoms: _298  and  _299
REMARK  124  A    between atoms: _298  and  _301
REMARK  125  A    between atoms: _301  and  _302
REMARK  126  A    between atoms: _302  and  _303
REMARK  127  A    between atoms: _303  and  _304
REMARK  128  A    between atoms: _313  and  _315
REMARK  129  A    between atoms: _315  and  _316
REMARK  130  A    between atoms: _315  and  _318
REMARK  131  A    between atoms: _318  and  _319
REMARK  132  A    between atoms: _322  and  _324
REMARK  133  A    between atoms: _324  and  _325
REMARK  134  A    between atoms: _324  and  _327
REMARK  135  A    between atoms: _327  and  _328
REMARK  136  A    between atoms: _331  and  _333
REMARK  137  A    between atoms: _333  and  _334
REMARK  138  A    between atoms: _333  and  _336
REMARK  139  A    between atoms: _336  and  _337
REMARK  140  A    between atoms: _340  and  _342
REMARK  141  A    between atoms: _342  and  _343
REMARK  142  A    between atoms: _342  and  _345
REMARK  143  A    between atoms: _345  and  _346
REMARK  144  A    between atoms: _349  and  _351
REMARK  145  A    between atoms: _351  and  _352
REMARK  146  A    between atoms: _354  and  _356
REMARK  147  A    between atoms: _356  and  _357
REMARK  148  A    between atoms: _360  and  _362
REMARK  149  A    between atoms: _362  and  _363
REMARK  150  A    between atoms: _362  and  _365
REMARK  151  A    between atoms: _365  and  _366
REMARK  152  A    between atoms: _369  and  _371
REMARK  153  A    between atoms: _371  and  _372
REMARK  154  A    between atoms: _371  and  _374
REMARK  155  A    between atoms: _374  and  _375
REMARK  156  A    between atoms: _378  and  _380
REMARK  157  A    between atoms: _380  and  _381
REMARK  158  A    between atoms: _380  and  _383
REMARK  159  A    between atoms: _383  and  _384
REMARK  160  A    between atoms: _386  and  _388
REMARK  161  A    between atoms: _388  and  _389
REMARK  162  A    between atoms: _388  and  _391
REMARK  163  A    between atoms: _391  and  _392
REMARK  164  A    between atoms: _395  and  _397
REMARK  165  A    between atoms: _397  and  _398
REMARK  166  A    between atoms: _397  and  _400
REMARK  167  A    between atoms: _400  and  _401
REMARK  168  A    between atoms: _401  and  _402
REMARK  169  A    between atoms: _402  and  _403
REMARK  170  A    between atoms: _403  and  _404
REMARK  171  A    between atoms: _408  and  _410
REMARK  172  A    between atoms: _410  and  _411
REMARK  173  A    between atoms: _410  and  _413
REMARK  174  A    between atoms: _413  and  _414
REMARK  175  A    between atoms: _417  and  _419
REMARK  176  A    between atoms: _419  and  _420
REMARK  177  A    between atoms: _419  and  _422
REMARK  178  A    between atoms: _425  and  _427
REMARK  179  A    between atoms: _427  and  _428
REMARK  180  A    between atoms: _430  and  _432
REMARK  181  A    between atoms: _432  and  _433
REMARK  182  A    between atoms: _435  and  _437
REMARK  183  A    between atoms: _437  and  _438
REMARK  184  A    between atoms: _437  and  _440
REMARK  185  A    between atoms: _440  and  _441
REMARK  186  A    between atoms: _444  and  _446
REMARK  187  A    between atoms: _446  and  _447
REMARK  188  A    between atoms: _449  and  _451
REMARK  189  A    between atoms: _451  and  _452
REMARK  190  A    between atoms: _454  and  _456
REMARK  191  A    between atoms: _456  and  _457
REMARK  192  A    between atoms: _456  and  _459
REMARK  193  A    between atoms: _459  and  _460
REMARK  194  A    between atoms: _466  and  _468
REMARK  195  A    between atoms: _468  and  _469
REMARK  196  A    between atoms: _468  and  _471
REMARK  197  A    between atoms: _471  and  _472
REMARK  198  A    between atoms: _475  and  _477
REMARK  199  A    between atoms: _477  and  _478
REMARK  200  A    between atoms: _477  and  _480
REMARK  201  A    between atoms: _480  and  _481
REMARK  202  A    between atoms: _484  and  _486
REMARK  203  A    between atoms: _486  and  _487
REMARK  204  A    between atoms: _486  and  _489
REMARK  205  A    between atoms: _489  and  _490
REMARK  206  A    between atoms: _490  and  _491
REMARK  207  A    between atoms: _493  and  _495
REMARK  208  A    between atoms: _495  and  _496
REMARK  209  A    between atoms: _495  and  _498
REMARK  210  A    between atoms: _498  and  _499
REMARK  211  A    between atoms: _503  and  _504
REMARK  212  A    between atoms: _509  and  _511
REMARK  213  A    between atoms: _511  and  _512
REMARK  214  A    between atoms: _511  and  _514
REMARK  215  A    between atoms: _514  and  _515
REMARK  216  A    between atoms: _518  and  _520
REMARK  217  A    between atoms: _520  and  _521
REMARK  218  A    between atoms: _520  and  _523
REMARK  219  A    between atoms: _523  and  _524
REMARK  220  A    between atoms: _529  and  _531
REMARK  221  A    between atoms: _531  and  _532
REMARK  222  A    between atoms: _531  and  _534
REMARK  223  A    between atoms: _534  and  _535
REMARK  224  A    between atoms: _538  and  _540
REMARK  225  A    between atoms: _540  and  _541
REMARK  226  A    between atoms: _540  and  _543
REMARK  227  A    between atoms: _543  and  _544
REMARK  228  A    between atoms: _550  and  _552
REMARK  229  A    between atoms: _552  and  _553
REMARK  230  A    between atoms: _555  and  _557
REMARK  231  A    between atoms: _557  and  _558
REMARK  232  A    between atoms: _557  and  _560
REMARK  233  A    between atoms: _560  and  _561
REMARK  234  A    between atoms: _561  and  _562
REMARK  235  A    between atoms: _562  and  _563
REMARK  236  A    between atoms: _572  and  _574
REMARK  237  A    between atoms: _574  and  _575
REMARK  238  A    between atoms: _574  and  _577
REMARK  239  A    between atoms: _577  and  _578
REMARK                            x       y       z     vdW  Elec       q    Type
REMARK                         _______ _______ _______ _____ _____    ______ ____
ROOT
ATOM      1  CA  MET A   1      24.774  -4.388  10.126  0.00  0.00    +0.134 C 
ENDROOT
BRANCH   1   2
ATOM      2  N   MET A   1      25.166  -3.710   8.902  0.00  0.00    -0.239 NA
ATOM      3  H   MET A   1      24.439  -3.240   8.325  0.00  0.00    +0.142 HD
ENDBRANCH   1   2
BRANCH   1   4
ATOM      4  C   MET A   1      24.236  -5.775   9.772  0.00  0.00    +0.224 C 
ATOM      5  O   MET A   1      23.591  -5.935   8.727  0.00  0.00    -0.287 OA
ENDBRANCH   1   4
BRANCH   1   6
ATOM      6  CB  MET A   1      23.704  -3.563  10.847  0.00  0.00    +0.037 C 
BRANCH   6   7
ATOM      7  CG  MET A   1      24.118  -2.101  11.088  0.00  0.00    +0.059 C 
BRANCH   7   8
ATOM      8  SD  MET A   1      22.943  -1.195  12.094  0.00  0.00    -0.139 S 
ATOM      9  CE  MET A   1      21.820  -0.566  10.870  0.00  0.00    +0.069 C 
ENDBRANCH   7   8
ENDBRANCH   6   7
ENDBRANCH   1   6
TORSDOF 5
REMARK  Name = ../refined-set-2016/1hsh/1hsh_pocket.pdb
REMARK  239 active torsions:
REMARK  status: ('A' for Active; 'I' for Inactive)
REMARK    1  A    between atoms: _1  and  _3
REMARK    2  A    between atoms: _3  and  _4
REMARK    3  A    between atoms: _3  and  _6
REMARK    4  A    between atoms: _6  and  _7
REMARK    5  A    between atoms: _7  and  _8
REMARK    6  A    between atoms: _8  and  _9
REMARK    7  A    between atoms: _18  and  _20
REMARK    8  A    between atoms: _20  and  _21
REMARK    9  A    between atoms: _20  and  _23
REMARK   10  A    between atoms: _23  and  _24
REMARK   11  A    between atoms: _27  and  _29
REMARK   12  A    between atoms: _29  and  _30
REMARK   13  A    between atoms: _29  and  _32
REMARK   14  A    between atoms: _32  and  _33
REMARK   15  A    between atoms: _36  and  _38
REMARK   16  A    between atoms: _38  and  _39
REMARK   17  A    between atoms: _38  and  _41
REMARK   18  A    between atoms: _41  and  _42
REMARK   19  A    between atoms: _45  and  _47
REMARK   20  A    between atoms: _47  and  _48
REMARK   21  A    between atoms: _47  and  _50
REMARK   22  A    between atoms: _50  and  _51
REMARK   23  A    between atoms: _54  and  _56
REMARK   24  A    between atoms: _56  and  _57
REMARK   25  A    between atoms: _59  and  _61
REMARK   26  A    between atoms: _61  and  _62
REMARK   27  A    between atoms: _65  and  _67
REMARK   28  A    between atoms: _67  and  _68
REMARK   29  A    between atoms: _67  and  _70
REMARK   30  A    between atoms: _70  and  _71
REMARK   31  A    between atoms: _74  and  _76
REMARK   32  A    between atoms: _76  and  _77
REMARK   33  A    between atoms: _76  and  _79
REMARK   34  A    between atoms: _79  and  _80
REMARK   35  A    between atoms: _83  and  _85
REMARK   36  A    between atoms: _85  and  _86
REMARK   37  A    between atoms: _85  and  _88
REMARK   38  A    between atoms: _88  and  _89
REMARK   39  A    between atoms: _91  and  _93
REMARK   40  A    between atoms: _93  and  _94
REMARK   41  A    between atoms: _93  and  _96
REMARK   42  A    between atoms: _96  and  _97
REMARK   43  A    between atoms: _100  and  _102
REMARK   44  A    between atoms: _102  and  _103
REMARK   45  A    between atoms: _102  and  _105
REMARK   46  A    between atoms: _108  and  _110
REMARK   47  A    between atoms: _110  and  _111
REMARK   48  A    between atoms: _110  and  _113
REMARK   49  A    between atoms: _113  and  _114
REMARK   50  A    between atoms: _114  and  _115
REMARK   51  A    between atoms: _115  and  _116
REMARK   52  A    between atoms: _116  and  _117
REMARK   53  A    between atoms: _121  and  _123
REMARK   54  A    between atoms: _123  and  _124
REMARK   55  A    between atoms: _123  and  _126
REMARK   56  A    between atoms: _126  and  _127
REMARK   57  A    between atoms: _130  and  _132
REMARK   58  A    between atoms: _132  and  _133
REMARK   59  A    between atoms: _132  and  _135
REMARK   60  A    between atoms: _138  and  _140
REMARK   61  A    between atoms: _140  and  _141
REMARK   62  A    between atoms: _143  and  _145
REMARK   63  A    between atoms: _145  and  _146
REMARK   64  A    between atoms: _148  and  _150
REMARK   65  A    between atoms: _150  and  _151
REMARK   66  A    between atoms: _150  and  _153
REMARK   67  A    between atoms: _153  and  _154
REMARK   68  A    between atoms: _157  and  _159
REMARK   69  A    between atoms: _159  and  _160
REMARK   70  A    between atoms: _162  and  _164
REMARK   71  A    between atoms: _164  and  _165
REMARK   72  A    between atoms: _167  and  _169
REMARK   73  A    between atoms: _169  and  _170
REMARK   74  A    between atoms: _169  and  _172
REMARK   75  A    between atoms: _172  and  _173
REMARK   76  A    between atoms: _179  and  _181
REMARK   77  A    between atoms: _181  and  _182
REMARK   78  A    between atoms: _181  and  _184
REMARK   79  A    between atoms: _184  and  _185
REMARK   80  A    between atoms: _188  and  _190
REMARK   81  A    between atoms: _190  and  _191
REMARK   82  A    between atoms: _190  and  _193
REMARK   83  A    between atoms: _193  and  _194
REMARK   84  A    between atoms: _197  and  _199
REMARK   85  A    between atoms: _199  and  _200
REMARK   86  A    between atoms: _199  and  _202
REMARK   87  A    between atoms: _202  and  _203
REMARK   88  A    between atoms: _203  and  _204
REMARK   89  A    between atoms: _206  and  _208
REMARK   90  A    between atoms: _208  and  _209
REMARK   91  A    between atoms: _208  and  _211
REMARK   92  A    between atoms: _211  and  _212
REMARK   93  A    between atoms: _216  and  _217
REMARK   94  A    between atoms: _222  and  _224
REMARK   95  A    between atoms: _224  and  _225
REMARK   96  A    between atoms: _224  and  _227
REMARK   97  A    between atoms: _227  and  _228
REMARK   98  A    between atoms: _231  and  _233
REMARK   99  A    between atoms: _233  and  _234
REMARK  100  A    between atoms: _233  and  _236
REMARK  101  A    between atoms: _236  and  _237
REMARK  102  A    between atoms: _242  and  _244
REMARK  103  A    between atoms: _244  and  _245
REMARK  104  A    between atoms: _244  and  _247
REMARK  105  A    between atoms: _247  and  _248
REMARK  106  A    between atoms: _251  and  _253
REMARK  107  A    between atoms: _253  and  _254
REMARK  108  A    between atoms: _253  and  _256
REMARK  109  A    between atoms: _256  and  _257
REMARK  110  A    between atoms: _263  and  _265
REMARK  111  A    between atoms: _265  and  _266
REMARK  112  A    between atoms: _268  and  _270
REMARK  113  A    between atoms: _270  and  _271
REMARK  114  A    between atoms: _270  and  _273
REMARK  115  A    between atoms: _273  and  _274
REMARK  116  A    between atoms: _274  and  _275
REMARK  117  A    between atoms: _275  and  _276
REMARK  118  A    between atoms: _285  and  _287
REMARK  119  A    between atoms: _287  and  _288
REMARK  120  A    between atoms: _287  and  _290
REMARK  121  A    between atoms: _290  and  _291
REMARK  122  A    between atoms: _296  and  _298
REMARK  123  A    between atoms: _298  and  _299
REMARK  124  A    between atoms: _298  and  _301
REMARK  125  A    between atoms: _301  and  _302
REMARK  126  A    between atoms: _302  and  _303
REMARK  127  A    between atoms: _303  and  _304
REMARK  128  A    between atoms: _313  and  _315
REMARK  129  A    between atoms: _315  and  _316
REMARK  130  A    between atoms: _315  and  _318
REMARK  131  A    between atoms: _318  and  _319
REMARK  132  A    between atoms: _322  and  _324
REMARK  133  A    between atoms: _324  and  _325
REMARK  134  A    between atoms: _324  and  _327
REMARK  135  A    between atoms: _327  and  _328
REMARK  136  A    between atoms: _331  and  _333
REMARK  137  A    between atoms: _333  and  _334
REMARK  138  A    between atoms: _333  and  _336
REMARK  139  A    between atoms: _336  and  _337
REMARK  140  A    between atoms: _340  and  _342
REMARK  141  A    between atoms: _342  and  _343
REMARK  142  A    between atoms: _342  and  _345
REMARK  143  A    between atoms: _345  and  _346
REMARK  144  A    between atoms: _349  and  _351
REMARK  145  A    between atoms: _351  and  _352
REMARK  146  A    between atoms: _354  and  _356
REMARK  147  A    between atoms: _356  and  _357
REMARK  148  A    between atoms: _360  and  _362
REMARK  149  A    between atoms: _362  and  _363
REMARK  150  A    between atoms: _362  and  _365
REMARK  151  A    between atoms: _365  and  _366
REMARK  152  A    between atoms: _369  and  _371
REMARK  153  A    between atoms: _371  and  _372
REMARK  154  A    between atoms: _371  and  _374
REMARK  155  A    between atoms: _374  and  _375
REMARK  156  A    between atoms: _378  and  _380
REMARK  157  A    between atoms: _380  and  _381
REMARK  158  A    between atoms: _380  and  _383
REMARK  159  A    between atoms: _383  and  _384
REMARK  160  A    between atoms: _386  and  _388
REMARK  161  A    between atoms: _388  and  _389
REMARK  162  A    between atoms: _388  and  _391
REMARK  163  A    between atoms: _391  and  _392
REMARK  164  A    between atoms: _395  and  _397
REMARK  165  A    between atoms: _397  and  _398
REMARK  166  A    between atoms: _397  and  _400
REMARK  167  A    between atoms: _400  and  _401
REMARK  168  A    between atoms: _401  and  _402
REMARK  169  A    between atoms: _402  and  _403
REMARK  170  A    between atoms: _403  and  _404
REMARK  171  A    between atoms: _408  and  _410
REMARK  172  A    between atoms: _410  and  _411
REMARK  173  A    between atoms: _410  and  _413
REMARK  174  A    between atoms: _413  and  _414
REMARK  175  A    between atoms: _417  and  _419
REMARK  176  A    between atoms: _419  and  _420
REMARK  177  A    between atoms: _419  and  _422
REMARK  178  A    between atoms: _425  and  _427
REMARK  179  A    between atoms: _427  and  _428
REMARK  180  A    between atoms: _430  and  _432
REMARK  181  A    between atoms: _432  and  _433
REMARK  182  A    between atoms: _435  and  _437
REMARK  183  A    between atoms: _437  and  _438
REMARK  184  A    between atoms: _437  and  _440
REMARK  185  A    between atoms: _440  and  _441
REMARK  186  A    between atoms: _444  and  _446
REMARK  187  A    between atoms: _446  and  _447
REMARK  188  A    between atoms: _449  and  _451
REMARK  189  A    between atoms: _451  and  _452
REMARK  190  A    between atoms: _454  and  _456
REMARK  191  A    between atoms: _456  and  _457
REMARK  192  A    between atoms: _456  and  _459
REMARK  193  A    between atoms: _459  and  _460
REMARK  194  A    between atoms: _466  and  _468
REMARK  195  A    between atoms: _468  and  _469
REMARK  196  A    between atoms: _468  and  _471
REMARK  197  A    between atoms: _471  and  _472
REMARK  198  A    between atoms: _475  and  _477
REMARK  199  A    between atoms: _477  and  _478
REMARK  200  A    between atoms: _477  and  _480
REMARK  201  A    between atoms: _480  and  _481
REMARK  202  A    between atoms: _484  and  _486
REMARK  203  A    between atoms: _486  and  _487
REMARK  204  A    between atoms: _486  and  _489
REMARK  205  A    between atoms: _489  and  _490
REMARK  206  A    between atoms: _490  and  _491
REMARK  207  A    between atoms: _493  and  _495
REMARK  208  A    between atoms: _495  and  _496
REMARK  209  A    between atoms: _495  and  _498
REMARK  210  A    between atoms: _498  and  _499
REMARK  211  A    between atoms: _503  and  _504
REMARK  212  A    between atoms: _509  and  _511
REMARK  213  A    between atoms: _511  and  _512
REMARK  214  A    between atoms: _511  and  _514
REMARK  215  A    between atoms: _514  and  _515
REMARK  216  A    between atoms: _518  and  _520
REMARK  217  A    between atoms: _520  and  _521
REMARK  218  A    between atoms: _520  and  _523
REMARK  219  A    between atoms: _523  and  _524
REMARK  220  A    between atoms: _529  and  _531
REMARK  221  A    between atoms: _531  and  _532
REMARK  222  A    between atoms: _531  and  _534
REMARK  223  A    between atoms: _534  and  _535
REMARK  224  A    between atoms: _538  and  _540
REMARK  225  A    between atoms: _540  and  _541
REMARK  226  A    between atoms: _540  and  _543
REMARK  227  A    between atoms: _543  and  _544
REMARK  228  A    between atoms: _550  and  _552
REMARK  229  A    between atoms: _552  and  _553
REMARK  230  A    between atoms: _555  and  _557
REMARK  231  A    between atoms: _557  and  _558
REMARK  232  A    between atoms: _557  and  _560
REMARK  233  A    between atoms: _560  and  _561
REMARK  234  A    between atoms: _561  and  _562
REMARK  235  A    between atoms: _562  and  _563
REMARK  236  A    between atoms: _572  and  _574
REMARK  237  A    between atoms: _574  and  _575
REMARK  238  A    between atoms: _574  and  _577
REMARK  239  A    between atoms: _577  and  _578
REMARK                            x       y       z     vdW  Elec       q    Type
REMARK                         _______ _______ _______ _____ _____    ______ ____
ROOT
ATOM      1  C   ILE A   5      19.409  -3.312   2.759  0.00  0.00    +0.241 C 
ATOM      2  O   ILE A   5      20.405  -3.453   3.452  0.00  0.00    -0.273 OA
ATOM      3  N   PHE A   6      19.420  -2.626   1.623  0.00  0.00    -0.297 N 
ATOM      4  H   PHE A   6      18.628  -2.742   0.959  0.00  0.00    +0.150 HD
ENDROOT
BRANCH   1   5
ATOM      5  CA  ILE A   5      18.088  -3.980   3.146  0.00  0.00    +0.149 C 
BRANCH   5   7
ATOM      6  C   ASN A   4      17.616  -6.351   2.939  0.00  0.00    +0.241 C 
ATOM      7  N   ILE A   5      18.245  -5.356   3.557  0.00  0.00    -0.297 N 
ATOM      8  H   ILE A   5      18.869  -5.575   4.360  0.00  0.00    +0.150 HD
ATOM      9  O   ASN A   4      17.038  -6.227   1.875  0.00  0.00    -0.273 OA
BRANCH   6  10
ATOM     10  CA  ASN A   4      17.746  -7.710   3.557  0.00  0.00    +0.158 C 
BRANCH  10  13
ATOM     11  C   ILE A   3      15.504  -8.081   4.527  0.00  0.00    +0.241 C 
ATOM     12  O   ILE A   3      15.700  -7.292   5.454  0.00  0.00    -0.273 OA
ATOM     13  N   ASN A   4      16.429  -8.355   3.612  0.00  0.00    -0.297 N 
ATOM     14  H   ASN A   4      16.205  -9.070   2.891  0.00  0.00    +0.150 HD
BRANCH  11  15
ATOM     15  CA  ILE A   3      14.171  -8.881   4.416  0.00  0.00    +0.149 C 
BRANCH  15  17
ATOM     16  C   PRO A   2      13.012 -10.249   6.097  0.00  0.00    +0.241 C 
ATOM     17  N   ILE A   3      13.584  -9.098   5.742  0.00  0.00    -0.297 N 
ATOM     18  H   ILE A   3      13.615  -8.322   6.434  0.00  0.00    +0.150 HD
ATOM     19  O   PRO A   2      12.914 -11.217   5.340  0.00  0.00    -0.273 OA
BRANCH  16  25
ATOM     20  C   THR A   1      14.668  -9.921   8.632  0.00  0.00    +0.244 C 
ATOM     21  N   PRO A   2      13.343  -9.661   8.503  0.00  0.00    -0.272 N 
ATOM     22  CD  PRO A   2      12.614  -8.585   9.202  0.00  0.00    +0.094 C 
ATOM     23  CG  PRO A   2      11.513  -8.284   8.255  0.00  0.00    +0.024 C 
ATOM     24  CB  PRO A   2      11.145  -9.608   7.679  0.00  0.00    +0.031 C 
ATOM     25  CA  PRO A   2      12.477 -10.337   7.526  0.00  0.00    +0.152 C 
ATOM     26  O   THR A   1      15.218 -10.845   8.001  0.00  0.00    -0.273 OA
BRANCH  20  27
ATOM     27  CA  THR A   1      15.472  -9.035   9.621  0.00  0.00    +0.172 C 
BRANCH  27  28
ATOM     28  N   THR A   1      16.359  -9.843  10.440  0.00  0.00    -0.236 NA
ATOM     29  H   THR A   1      16.980 -10.537   9.976  0.00  0.00    +0.142 HD
ENDBRANCH  27  28
BRANCH  27  30
ATOM     30  CB  THR A   1      16.273  -7.934   8.865  0.00  0.00    +0.135 C 
ATOM     31  CG2 THR A   1      17.172  -8.528   7.797  0.00  0.00    +0.034 C 
BRANCH  30  32
ATOM     32  OG1 THR A   1      15.367  -7.022   8.255  0.00  0.00    -0.383 OA
ATOM     33  HG1 THR A   1      14.791  -7.510   7.615  0.00  0.00    +0.210 HD
ENDBRANCH  30  32
ENDBRANCH  27  30
ENDBRANCH  20  27
ENDBRANCH  16  25
ENDBRANCH  15  17
BRANCH  15  34
ATOM     34  CB  ILE A   3      13.129  -8.161   3.480  0.00  0.00    +0.027 C 
ATOM     35  CG2 ILE A   3      12.830  -6.774   3.981  0.00  0.00    +0.002 C 
BRANCH  34  36
ATOM     36  CG1 ILE A   3      13.614  -8.122   2.033  0.00  0.00    +0.002 C 
ATOM     37  CD1 ILE A   3      12.694  -7.329   1.108  0.00  0.00    +0.000 C 
ENDBRANCH  34  36
ENDBRANCH  15  34
ENDBRANCH  11  15
ENDBRANCH  10  13
BRANCH  10  38
ATOM     38  CB  ASN A   4      18.703  -8.490   2.669  0.00  0.00    +0.114 C 
BRANCH  38  39
ATOM     39  CG  ASN A   4      19.018  -9.848   3.213  0.00  0.00    +0.222 C 
ATOM     40  ND2 ASN A   4      18.817 -10.041   4.515  0.00  0.00    -0.329 N 
ATOM     41 HD21 ASN A   4      18.446  -9.268   5.104  0.00  0.00    +0.145 HD
ATOM     42 HD22 ASN A   4      19.031 -10.965   4.943  0.00  0.00    +0.145 HD
ATOM     43  OD1 ASN A   4      19.453 -10.724   2.471  0.00  0.00    -0.275 OA
ENDBRANCH  38  39
ENDBRANCH  10  38
ENDBRANCH   6  10
ENDBRANCH   5   7
BRANCH   5  44
ATOM     44  CB  ILE A   5      17.374  -3.231   4.272  0.00  0.00    +0.027 C 
ATOM     45  CG2 ILE A   5      17.413  -1.723   4.046  0.00  0.00    +0.002 C 
BRANCH  44  46
ATOM     46  CG1 ILE A   5      15.930  -3.753   4.345  0.00  0.00    +0.002 C 
ATOM     47  CD1 ILE A   5      15.317  -3.765   5.734  0.00  0.00    +0.000 C 
ENDBRANCH  44  46
ENDBRANCH   5  44
ENDBRANCH   1   5
BRANCH   3  48
ATOM     48  CA  PHE A   6      20.503  -1.717   1.274  0.00  0.00    +0.153 C 
BRANCH  48  49
ATOM     49  C   PHE A   6      20.022  -0.260   1.431  0.00  0.00    +0.241 C 
ATOM     50  N   GLY A   7      20.453   0.406   2.496  0.00  0.00    -0.295 N 
ATOM     51  H   GLY A   7      21.147  -0.030   3.136  0.00  0.00    +0.150 HD
ATOM     52  O   PHE A   6      19.265   0.239   0.610  0.00  0.00    -0.273 OA
BRANCH  50  53
ATOM     53  CA  GLY A   7      19.960   1.733   2.765  0.00  0.00    +0.176 C 
BRANCH  53  54
ATOM     54  C   GLY A   7      20.766   2.795   2.039  0.00  0.00    +0.243 C 
ATOM     55  N   ARG A   8      20.623   4.035   2.504  0.00  0.00    -0.297 N 
ATOM     56  H   ARG A   8      20.066   4.176   3.371  0.00  0.00    +0.150 HD
ATOM     57  O   GLY A   7      21.657   2.458   1.239  0.00  0.00    -0.273 OA
BRANCH  55  58
ATOM     58  CA  ARG A   8      21.206   5.203   1.861  0.00  0.00    +0.149 C 
BRANCH  58  59
ATOM     59  C   ARG A   8      22.748   5.193   1.888  0.00  0.00    +0.241 C 
ATOM     60  N   ASN A   9      23.330   4.651   2.954  0.00  0.00    -0.298 N 
ATOM     61  H   ASN A   9      22.738   4.232   3.699  0.00  0.00    +0.150 HD
ATOM     62  O   ARG A   8      23.401   5.652   0.943  0.00  0.00    -0.273 OA
BRANCH  60  63
ATOM     63  CA  ASN A   9      24.786   4.632   3.100  0.00  0.00    +0.146 C 
BRANCH  63  64
ATOM     64  C   ASN A   9      25.453   3.868   1.968  0.00  0.00    +0.227 C 
ATOM     65  O   ASN A   9      26.605   4.156   1.614  0.00  0.00    -0.286 OA
ENDBRANCH  63  64
BRANCH  63  66
ATOM     66  CB  ASN A   9      25.212   4.030   4.456  0.00  0.00    +0.112 C 
BRANCH  66  67
ATOM     67  CG  ASN A   9      24.962   2.528   4.554  0.00  0.00    +0.222 C 
ATOM     68  ND2 ASN A   9      26.025   1.760   4.688  0.00  0.00    -0.329 N 
ATOM     69 HD21 ASN A   9      25.912   0.744   4.879  0.00  0.00    +0.145 HD
ATOM     70 HD22 ASN A   9      26.977   2.170   4.603  0.00  0.00    +0.145 HD
ATOM     71  OD1 ASN A   9      23.824   2.085   4.647  0.00  0.00    -0.275 OA
ENDBRANCH  66  67
ENDBRANCH  63  66
ENDBRANCH  60  63
ENDBRANCH  58  59
BRANCH  58  72
ATOM     72  CB  ARG A   8      20.679   6.464   2.547  0.00  0.00    +0.033 C 
BRANCH  72  73
ATOM     73  CG  ARG A   8      19.293   6.989   2.063  0.00  0.00    +0.045 C 
BRANCH  73  74
ATOM     74  CD  ARG A   8      18.693   7.985   3.087  0.00  0.00    +0.174 C 
BRANCH  74  75
ATOM     75  NE  ARG A   8      19.572   9.136   3.248  0.00  0.00    -0.265 N 
ATOM     76  CZ  ARG A   8      20.208   9.469   4.368  0.00  0.00    +0.342 C 
ATOM     77  NH2 ARG A   8      19.717   9.174   5.559  0.00  0.00    -0.292 N 
ATOM     78 HH21 ARG A   8      20.236   9.447   6.418  0.00  0.00    +0.255 HD
ATOM     79 HH22 ARG A   8      18.811   8.669   5.638  0.00  0.00    +0.255 HD
ATOM     80  NH1 ARG A   8      21.179  10.351   4.294  0.00  0.00    -0.292 N 
ATOM     81 HH11 ARG A   8      21.694  10.631   5.153  0.00  0.00    +0.255 HD
ATOM     82 HH12 ARG A   8      21.433  10.769   3.376  0.00  0.00    +0.255 HD
ATOM     83  HE  ARG A   8      19.714   9.748   2.419  0.00  0.00    +0.259 HD
ENDBRANCH  74  75
ENDBRANCH  73  74
ENDBRANCH  72  73
ENDBRANCH  58  72
ENDBRANCH  55  58
ENDBRANCH  53  54
ENDBRANCH  50  53
ENDBRANCH  48  49
BRANCH  48  84
ATOM     84  CB  PHE A   6      20.989  -1.964  -0.164  0.00  0.00    +0.055 C 
BRANCH  84  85
ATOM     85  CG  PHE A   6      22.117  -2.958  -0.263  0.00  0.00    -0.020 A 
ATOM     86  CD2 PHE A   6      22.412  -3.827   0.803  0.00  0.00    -0.004 A 
ATOM     87  CE2 PHE A   6      23.475  -4.753   0.712  0.00  0.00    -0.000 A 
ATOM     88  CZ  PHE A   6      24.244  -4.803  -0.436  0.00  0.00    -0.000 A 
ATOM     89  CE1 PHE A   6      23.960  -3.950  -1.497  0.00  0.00    -0.000 A 
ATOM     90  CD1 PHE A   6      22.897  -3.032  -1.409  0.00  0.00    -0.004 A 
ENDBRANCH  84  85
ENDBRANCH  48  84
ENDBRANCH   3  48
TORSDOF 33
REMARK  Name = ../refined-set-2016/1hsh/1hsh_pocket.pdb
REMARK  239 active torsions:
REMARK  status: ('A' for Active; 'I' for Inactive)
REMARK    1  A    between atoms: _1  and  _3
REMARK    2  A    between atoms: _3  and  _4
REMARK    3  A    between atoms: _3  and  _6
REMARK    4  A    between atoms: _6  and  _7
REMARK    5  A    between atoms: _7  and  _8
REMARK    6  A    between atoms: _8  and  _9
REMARK    7  A    between atoms: _18  and  _20
REMARK    8  A    between atoms: _20  and  _21
REMARK    9  A    between atoms: _20  and  _23
REMARK   10  A    between atoms: _23  and  _24
REMARK   11  A    between atoms: _27  and  _29
REMARK   12  A    between atoms: _29  and  _30
REMARK   13  A    between atoms: _29  and  _32
REMARK   14  A    between atoms: _32  and  _33
REMARK   15  A    between atoms: _36  and  _38
REMARK   16  A    between atoms: _38  and  _39
REMARK   17  A    between atoms: _38  and  _41
REMARK   18  A    between atoms: _41  and  _42
REMARK   19  A    between atoms: _45  and  _47
REMARK   20  A    between atoms: _47  and  _48
REMARK   21  A    between atoms: _47  and  _50
REMARK   22  A    between atoms: _50  and  _51
REMARK   23  A    between atoms: _54  and  _56
REMARK   24  A    between atoms: _56  and  _57
REMARK   25  A    between atoms: _59  and  _61
REMARK   26  A    between atoms: _61  and  _62
REMARK   27  A    between atoms: _65  and  _67
REMARK   28  A    between atoms: _67  and  _68
REMARK   29  A    between atoms: _67  and  _70
REMARK   30  A    between atoms: _70  and  _71
REMARK   31  A    between atoms: _74  and  _76
REMARK   32  A    between atoms: _76  and  _77
REMARK   33  A    between atoms: _76  and  _79
REMARK   34  A    between atoms: _79  and  _80
REMARK   35  A    between atoms: _83  and  _85
REMARK   36  A    between atoms: _85  and  _86
REMARK   37  A    between atoms: _85  and  _88
REMARK   38  A    between atoms: _88  and  _89
REMARK   39  A    between atoms: _91  and  _93
REMARK   40  A    between atoms: _93  and  _94
REMARK   41  A    between atoms: _93  and  _96
REMARK   42  A    between atoms: _96  and  _97
REMARK   43  A    between atoms: _100  and  _102
REMARK   44  A    between atoms: _102  and  _103
REMARK   45  A    between atoms: _102  and  _105
REMARK   46  A    between atoms: _108  and  _110
REMARK   47  A    between atoms: _110  and  _111
REMARK   48  A    between atoms: _110  and  _113
REMARK   49  A    between atoms: _113  and  _114
REMARK   50  A    between atoms: _114  and  _115
REMARK   51  A    between atoms: _115  and  _116
REMARK   52  A    between atoms: _116  and  _117
REMARK   53  A    between atoms: _121  and  _123
REMARK   54  A    between atoms: _123  and  _124
REMARK   55  A    between atoms: _123  and  _126
REMARK   56  A    between atoms: _126  and  _127
REMARK   57  A    between atoms: _130  and  _132
REMARK   58  A    between atoms: _132  and  _133
REMARK   59  A    between atoms: _132  and  _135
REMARK   60  A    between atoms: _138  and  _140
REMARK   61  A    between atoms: _140  and  _141
REMARK   62  A    between atoms: _143  and  _145
REMARK   63  A    between atoms: _145  and  _146
REMARK   64  A    between atoms: _148  and  _150
REMARK   65  A    between atoms: _150  and  _151
REMARK   66  A    between atoms: _150  and  _153
REMARK   67  A    between atoms: _153  and  _154
REMARK   68  A    between atoms: _157  and  _159
REMARK   69  A    between atoms: _159  and  _160
REMARK   70  A    between atoms: _162  and  _164
REMARK   71  A    between atoms: _164  and  _165
REMARK   72  A    between atoms: _167  and  _169
REMARK   73  A    between atoms: _169  and  _170
REMARK   74  A    between atoms: _169  and  _172
REMARK   75  A    between atoms: _172  and  _173
REMARK   76  A    between atoms: _179  and  _181
REMARK   77  A    between atoms: _181  and  _182
REMARK   78  A    between atoms: _181  and  _184
REMARK   79  A    between atoms: _184  and  _185
REMARK   80  A    between atoms: _188  and  _190
REMARK   81  A    between atoms: _190  and  _191
REMARK   82  A    between atoms: _190  and  _193
REMARK   83  A    between atoms: _193  and  _194
REMARK   84  A    between atoms: _197  and  _199
REMARK   85  A    between atoms: _199  and  _200
REMARK   86  A    between atoms: _199  and  _202
REMARK   87  A    between atoms: _202  and  _203
REMARK   88  A    between atoms: _203  and  _204
REMARK   89  A    between atoms: _206  and  _208
REMARK   90  A    between atoms: _208  and  _209
REMARK   91  A    between atoms: _208  and  _211
REMARK   92  A    between atoms: _211  and  _212
REMARK   93  A    between atoms: _216  and  _217
REMARK   94  A    between atoms: _222  and  _224
REMARK   95  A    between atoms: _224  and  _225
REMARK   96  A    between atoms: _224  and  _227
REMARK   97  A    between atoms: _227  and  _228
REMARK   98  A    between atoms: _231  and  _233
REMARK   99  A    between atoms: _233  and  _234
REMARK  100  A    between atoms: _233  and  _236
REMARK  101  A    between atoms: _236  and  _237
REMARK  102  A    between atoms: _242  and  _244
REMARK  103  A    between atoms: _244  and  _245
REMARK  104  A    between atoms: _244  and  _247
REMARK  105  A    between atoms: _247  and  _248
REMARK  106  A    between atoms: _251  and  _253
REMARK  107  A    between atoms: _253  and  _254
REMARK  108  A    between atoms: _253  and  _256
REMARK  109  A    between atoms: _256  and  _257
REMARK  110  A    between atoms: _263  and  _265
REMARK  111  A    between atoms: _265  and  _266
REMARK  112  A    between atoms: _268  and  _270
REMARK  113  A    between atoms: _270  and  _271
REMARK  114  A    between atoms: _270  and  _273
REMARK  115  A    between atoms: _273  and  _274
REMARK  116  A    between atoms: _274  and  _275
REMARK  117  A    between atoms: _275  and  _276
REMARK  118  A    between atoms: _285  and  _287
REMARK  119  A    between atoms: _287  and  _288
REMARK  120  A    between atoms: _287  and  _290
REMARK  121  A    between atoms: _290  and  _291
REMARK  122  A    between atoms: _296  and  _298
REMARK  123  A    between atoms: _298  and  _299
REMARK  124  A    between atoms: _298  and  _301
REMARK  125  A    between atoms: _301  and  _302
REMARK  126  A    between atoms: _302  and  _303
REMARK  127  A    between atoms: _303  and  _304
REMARK  128  A    between atoms: _313  and  _315
REMARK  129  A    between atoms: _315  and  _316
REMARK  130  A    between atoms: _315  and  _318
REMARK  131  A    between atoms: _318  and  _319
REMARK  132  A    between atoms: _322  and  _324
REMARK  133  A    between atoms: _324  and  _325
REMARK  134  A    between atoms: _324  and  _327
REMARK  135  A    between atoms: _327  and  _328
REMARK  136  A    between atoms: _331  and  _333
REMARK  137  A    between atoms: _333  and  _334
REMARK  138  A    between atoms: _333  and  _336
REMARK  139  A    between atoms: _336  and  _337
REMARK  140  A    between atoms: _340  and  _342
REMARK  141  A    between atoms: _342  and  _343
REMARK  142  A    between atoms: _342  and  _345
REMARK  143  A    between atoms: _345  and  _346
REMARK  144  A    between atoms: _349  and  _351
REMARK  145  A    between atoms: _351  and  _352
REMARK  146  A    between atoms: _354  and  _356
REMARK  147  A    between atoms: _356  and  _357
REMARK  148  A    between atoms: _360  and  _362
REMARK  149  A    between atoms: _362  and  _363
REMARK  150  A    between atoms: _362  and  _365
REMARK  151  A    between atoms: _365  and  _366
REMARK  152  A    between atoms: _369  and  _371
REMARK  153  A    between atoms: _371  and  _372
REMARK  154  A    between atoms: _371  and  _374
REMARK  155  A    between atoms: _374  and  _375
REMARK  156  A    between atoms: _378  and  _380
REMARK  157  A    between atoms: _380  and  _381
REMARK  158  A    between atoms: _380  and  _383
REMARK  159  A    between atoms: _383  and  _384
REMARK  160  A    between atoms: _386  and  _388
REMARK  161  A    between atoms: _388  and  _389
REMARK  162  A    between atoms: _388  and  _391
REMARK  163  A    between atoms: _391  and  _392
REMARK  164  A    between atoms: _395  and  _397
REMARK  165  A    between atoms: _397  and  _398
REMARK  166  A    between atoms: _397  and  _400
REMARK  167  A    between atoms: _400  and  _401
REMARK  168  A    between atoms: _401  and  _402
REMARK  169  A    between atoms: _402  and  _403
REMARK  170  A    between atoms: _403  and  _404
REMARK  171  A    between atoms: _408  and  _410
REMARK  172  A    between atoms: _410  and  _411
REMARK  173  A    between atoms: _410  and  _413
REMARK  174  A    between atoms: _413  and  _414
REMARK  175  A    between atoms: _417  and  _419
REMARK  176  A    between atoms: _419  and  _420
REMARK  177  A    between atoms: _419  and  _422
REMARK  178  A    between atoms: _425  and  _427
REMARK  179  A    between atoms: _427  and  _428
REMARK  180  A    between atoms: _430  and  _432
REMARK  181  A    between atoms: _432  and  _433
REMARK  182  A    between atoms: _435  and  _437
REMARK  183  A    between atoms: _437  and  _438
REMARK  184  A    between atoms: _437  and  _440
REMARK  185  A    between atoms: _440  and  _441
REMARK  186  A    between atoms: _444  and  _446
REMARK  187  A    between atoms: _446  and  _447
REMARK  188  A    between atoms: _449  and  _451
REMARK  189  A    between atoms: _451  and  _452
REMARK  190  A    between atoms: _454  and  _456
REMARK  191  A    between atoms: _456  and  _457
REMARK  192  A    between atoms: _456  and  _459
REMARK  193  A    between atoms: _459  and  _460
REMARK  194  A    between atoms: _466  and  _468
REMARK  195  A    between atoms: _468  and  _469
REMARK  196  A    between atoms: _468  and  _471
REMARK  197  A    between atoms: _471  and  _472
REMARK  198  A    between atoms: _475  and  _477
REMARK  199  A    between atoms: _477  and  _478
REMARK  200  A    between atoms: _477  and  _480
REMARK  201  A    between atoms: _480  and  _481
REMARK  202  A    between atoms: _484  and  _486
REMARK  203  A    between atoms: _486  and  _487
REMARK  204  A    between atoms: _486  and  _489
REMARK  205  A    between atoms: _489  and  _490
REMARK  206  A    between atoms: _490  and  _491
REMARK  207  A    between atoms: _493  and  _495
REMARK  208  A    between atoms: _495  and  _496
REMARK  209  A    between atoms: _495  and  _498
REMARK  210  A    between atoms: _498  and  _499
REMARK  211  A    between atoms: _503  and  _504
REMARK  212  A    between atoms: _509  and  _511
REMARK  213  A    between atoms: _511  and  _512
REMARK  214  A    between atoms: _511  and  _514
REMARK  215  A    between atoms: _514  and  _515
REMARK  216  A    between atoms: _518  and  _520
REMARK  217  A    between atoms: _520  and  _521
REMARK  218  A    between atoms: _520  and  _523
REMARK  219  A    between atoms: _523  and  _524
REMARK  220  A    between atoms: _529  and  _531
REMARK  221  A    between atoms: _531  and  _532
REMARK  222  A    between atoms: _531  and  _534
REMARK  223  A    between atoms: _534  and  _535
REMARK  224  A    between atoms: _538  and  _540
REMARK  225  A    between atoms: _540  and  _541
REMARK  226  A    between atoms: _540  and  _543
REMARK  227  A    between atoms: _543  and  _544
REMARK  228  A    between atoms: _550  and  _552
REMARK  229  A    between atoms: _552  and  _553
REMARK  230  A    between atoms: _555  and  _557
REMARK  231  A    between atoms: _557  and  _558
REMARK  232  A    between atoms: _557  and  _560
REMARK  233  A    between atoms: _560  and  _561
REMARK  234  A    between atoms: _561  and  _562
REMARK  235  A    between atoms: _562  and  _563
REMARK  236  A    between atoms: _572  and  _574
REMARK  237  A    between atoms: _574  and  _575
REMARK  238  A    between atoms: _574  and  _577
REMARK  239  A    between atoms: _577  and  _578
REMARK                            x       y       z     vdW  Elec       q    Type
REMARK                         _______ _______ _______ _____ _____    ______ ____
ROOT
ATOM      1  O   HOH     1      10.791  -0.783   9.257  0.00  0.00    +0.000 OA
ENDROOT
TORSDOF 0
REMARK  Name = ../refined-set-2016/1hsh/1hsh_pocket.pdb
REMARK  239 active torsions:
REMARK  status: ('A' for Active; 'I' for Inactive)
REMARK    1  A    between atoms: _1  and  _3
REMARK    2  A    between atoms: _3  and  _4
REMARK    3  A    between atoms: _3  and  _6
REMARK    4  A    between atoms: _6  and  _7
REMARK    5  A    between atoms: _7  and  _8
REMARK    6  A    between atoms: _8  and  _9
REMARK    7  A    between atoms: _18  and  _20
REMARK    8  A    between atoms: _20  and  _21
REMARK    9  A    between atoms: _20  and  _23
REMARK   10  A    between atoms: _23  and  _24
REMARK   11  A    between atoms: _27  and  _29
REMARK   12  A    between atoms: _29  and  _30
REMARK   13  A    between atoms: _29  and  _32
REMARK   14  A    between atoms: _32  and  _33
REMARK   15  A    between atoms: _36  and  _38
REMARK   16  A    between atoms: _38  and  _39
REMARK   17  A    between atoms: _38  and  _41
REMARK   18  A    between atoms: _41  and  _42
REMARK   19  A    between atoms: _45  and  _47
REMARK   20  A    between atoms: _47  and  _48
REMARK   21  A    between atoms: _47  and  _50
REMARK   22  A    between atoms: _50  and  _51
REMARK   23  A    between atoms: _54  and  _56
REMARK   24  A    between atoms: _56  and  _57
REMARK   25  A    between atoms: _59  and  _61
REMARK   26  A    between atoms: _61  and  _62
REMARK   27  A    between atoms: _65  and  _67
REMARK   28  A    between atoms: _67  and  _68
REMARK   29  A    between atoms: _67  and  _70
REMARK   30  A    between atoms: _70  and  _71
REMARK   31  A    between atoms: _74  and  _76
REMARK   32  A    between atoms: _76  and  _77
REMARK   33  A    between atoms: _76  and  _79
REMARK   34  A    between atoms: _79  and  _80
REMARK   35  A    between atoms: _83  and  _85
REMARK   36  A    between atoms: _85  and  _86
REMARK   37  A    between atoms: _85  and  _88
REMARK   38  A    between atoms: _88  and  _89
REMARK   39  A    between atoms: _91  and  _93
REMARK   40  A    between atoms: _93  and  _94
REMARK   41  A    between atoms: _93  and  _96
REMARK   42  A    between atoms: _96  and  _97
REMARK   43  A    between atoms: _100  and  _102
REMARK   44  A    between atoms: _102  and  _103
REMARK   45  A    between atoms: _102  and  _105
REMARK   46  A    between atoms: _108  and  _110
REMARK   47  A    between atoms: _110  and  _111
REMARK   48  A    between atoms: _110  and  _113
REMARK   49  A    between atoms: _113  and  _114
REMARK   50  A    between atoms: _114  and  _115
REMARK   51  A    between atoms: _115  and  _116
REMARK   52  A    between atoms: _116  and  _117
REMARK   53  A    between atoms: _121  and  _123
REMARK   54  A    between atoms: _123  and  _124
REMARK   55  A    between atoms: _123  and  _126
REMARK   56  A    between atoms: _126  and  _127
REMARK   57  A    between atoms: _130  and  _132
REMARK   58  A    between atoms: _132  and  _133
REMARK   59  A    between atoms: _132  and  _135
REMARK   60  A    between atoms: _138  and  _140
REMARK   61  A    between atoms: _140  and  _141
REMARK   62  A    between atoms: _143  and  _145
REMARK   63  A    between atoms: _145  and  _146
REMARK   64  A    between atoms: _148  and  _150
REMARK   65  A    between atoms: _150  and  _151
REMARK   66  A    between atoms: _150  and  _153
REMARK   67  A    between atoms: _153  and  _154
REMARK   68  A    between atoms: _157  and  _159
REMARK   69  A    between atoms: _159  and  _160
REMARK   70  A    between atoms: _162  and  _164
REMARK   71  A    between atoms: _164  and  _165
REMARK   72  A    between atoms: _167  and  _169
REMARK   73  A    between atoms: _169  and  _170
REMARK   74  A    between atoms: _169  and  _172
REMARK   75  A    between atoms: _172  and  _173
REMARK   76  A    between atoms: _179  and  _181
REMARK   77  A    between atoms: _181  and  _182
REMARK   78  A    between atoms: _181  and  _184
REMARK   79  A    between atoms: _184  and  _185
REMARK   80  A    between atoms: _188  and  _190
REMARK   81  A    between atoms: _190  and  _191
REMARK   82  A    between atoms: _190  and  _193
REMARK   83  A    between atoms: _193  and  _194
REMARK   84  A    between atoms: _197  and  _199
REMARK   85  A    between atoms: _199  and  _200
REMARK   86  A    between atoms: _199  and  _202
REMARK   87  A    between atoms: _202  and  _203
REMARK   88  A    between atoms: _203  and  _204
REMARK   89  A    between atoms: _206  and  _208
REMARK   90  A    between atoms: _208  and  _209
REMARK   91  A    between atoms: _208  and  _211
REMARK   92  A    between atoms: _211  and  _212
REMARK   93  A    between atoms: _216  and  _217
REMARK   94  A    between atoms: _222  and  _224
REMARK   95  A    between atoms: _224  and  _225
REMARK   96  A    between atoms: _224  and  _227
REMARK   97  A    between atoms: _227  and  _228
REMARK   98  A    between atoms: _231  and  _233
REMARK   99  A    between atoms: _233  and  _234
REMARK  100  A    between atoms: _233  and  _236
REMARK  101  A    between atoms: _236  and  _237
REMARK  102  A    between atoms: _242  and  _244
REMARK  103  A    between atoms: _244  and  _245
REMARK  104  A    between atoms: _244  and  _247
REMARK  105  A    between atoms: _247  and  _248
REMARK  106  A    between atoms: _251  and  _253
REMARK  107  A    between atoms: _253  and  _254
REMARK  108  A    between atoms: _253  and  _256
REMARK  109  A    between atoms: _256  and  _257
REMARK  110  A    between atoms: _263  and  _265
REMARK  111  A    between atoms: _265  and  _266
REMARK  112  A    between atoms: _268  and  _270
REMARK  113  A    between atoms: _270  and  _271
REMARK  114  A    between atoms: _270  and  _273
REMARK  115  A    between atoms: _273  and  _274
REMARK  116  A    between atoms: _274  and  _275
REMARK  117  A    between atoms: _275  and  _276
REMARK  118  A    between atoms: _285  and  _287
REMARK  119  A    between atoms: _287  and  _288
REMARK  120  A    between atoms: _287  and  _290
REMARK  121  A    between atoms: _290  and  _291
REMARK  122  A    between atoms: _296  and  _298
REMARK  123  A    between atoms: _298  and  _299
REMARK  124  A    between atoms: _298  and  _301
REMARK  125  A    between atoms: _301  and  _302
REMARK  126  A    between atoms: _302  and  _303
REMARK  127  A    between atoms: _303  and  _304
REMARK  128  A    between atoms: _313  and  _315
REMARK  129  A    between atoms: _315  and  _316
REMARK  130  A    between atoms: _315  and  _318
REMARK  131  A    between atoms: _318  and  _319
REMARK  132  A    between atoms: _322  and  _324
REMARK  133  A    between atoms: _324  and  _325
REMARK  134  A    between atoms: _324  and  _327
REMARK  135  A    between atoms: _327  and  _328
REMARK  136  A    between atoms: _331  and  _333
REMARK  137  A    between atoms: _333  and  _334
REMARK  138  A    between atoms: _333  and  _336
REMARK  139  A    between atoms: _336  and  _337
REMARK  140  A    between atoms: _340  and  _342
REMARK  141  A    between atoms: _342  and  _343
REMARK  142  A    between atoms: _342  and  _345
REMARK  143  A    between atoms: _345  and  _346
REMARK  144  A    between atoms: _349  and  _351
REMARK  145  A    between atoms: _351  and  _352
REMARK  146  A    between atoms: _354  and  _356
REMARK  147  A    between atoms: _356  and  _357
REMARK  148  A    between atoms: _360  and  _362
REMARK  149  A    between atoms: _362  and  _363
REMARK  150  A    between atoms: _362  and  _365
REMARK  151  A    between atoms: _365  and  _366
REMARK  152  A    between atoms: _369  and  _371
REMARK  153  A    between atoms: _371  and  _372
REMARK  154  A    between atoms: _371  and  _374
REMARK  155  A    between atoms: _374  and  _375
REMARK  156  A    between atoms: _378  and  _380
REMARK  157  A    between atoms: _380  and  _381
REMARK  158  A    between atoms: _380  and  _383
REMARK  159  A    between atoms: _383  and  _384
REMARK  160  A    between atoms: _386  and  _388
REMARK  161  A    between atoms: _388  and  _389
REMARK  162  A    between atoms: _388  and  _391
REMARK  163  A    between atoms: _391  and  _392
REMARK  164  A    between atoms: _395  and  _397
REMARK  165  A    between atoms: _397  and  _398
REMARK  166  A    between atoms: _397  and  _400
REMARK  167  A    between atoms: _400  and  _401
REMARK  168  A    between atoms: _401  and  _402
REMARK  169  A    between atoms: _402  and  _403
REMARK  170  A    between atoms: _403  and  _404
REMARK  171  A    between atoms: _408  and  _410
REMARK  172  A    between atoms: _410  and  _411
REMARK  173  A    between atoms: _410  and  _413
REMARK  174  A    between atoms: _413  and  _414
REMARK  175  A    between atoms: _417  and  _419
REMARK  176  A    between atoms: _419  and  _420
REMARK  177  A    between atoms: _419  and  _422
REMARK  178  A    between atoms: _425  and  _427
REMARK  179  A    between atoms: _427  and  _428
REMARK  180  A    between atoms: _430  and  _432
REMARK  181  A    between atoms: _432  and  _433
REMARK  182  A    between atoms: _435  and  _437
REMARK  183  A    between atoms: _437  and  _438
REMARK  184  A    between atoms: _437  and  _440
REMARK  185  A    between atoms: _440  and  _441
REMARK  186  A    between atoms: _444  and  _446
REMARK  187  A    between atoms: _446  and  _447
REMARK  188  A    between atoms: _449  and  _451
REMARK  189  A    between atoms: _451  and  _452
REMARK  190  A    between atoms: _454  and  _456
REMARK  191  A    between atoms: _456  and  _457
REMARK  192  A    between atoms: _456  and  _459
REMARK  193  A    between atoms: _459  and  _460
REMARK  194  A    between atoms: _466  and  _468
REMARK  195  A    between atoms: _468  and  _469
REMARK  196  A    between atoms: _468  and  _471
REMARK  197  A    between atoms: _471  and  _472
REMARK  198  A    between atoms: _475  and  _477
REMARK  199  A    between atoms: _477  and  _478
REMARK  200  A    between atoms: _477  and  _480
REMARK  201  A    between atoms: _480  and  _481
REMARK  202  A    between atoms: _484  and  _486
REMARK  203  A    between atoms: _486  and  _487
REMARK  204  A    between atoms: _486  and  _489
REMARK  205  A    between atoms: _489  and  _490
REMARK  206  A    between atoms: _490  and  _491
REMARK  207  A    between atoms: _493  and  _495
REMARK  208  A    between atoms: _495  and  _496
REMARK  209  A    between atoms: _495  and  _498
REMARK  210  A    between atoms: _498  and  _499
REMARK  211  A    between atoms: _503  and  _504
REMARK  212  A    between atoms: _509  and  _511
REMARK  213  A    between atoms: _511  and  _512
REMARK  214  A    between atoms: _511  and  _514
REMARK  215  A    between atoms: _514  and  _515
REMARK  216  A    between atoms: _518  and  _520
REMARK  217  A    between atoms: _520  and  _521
REMARK  218  A    between atoms: _520  and  _523
REMARK  219  A    between atoms: _523  and  _524
REMARK  220  A    between atoms: _529  and  _531
REMARK  221  A    between atoms: _531  and  _532
REMARK  222  A    between atoms: _531  and  _534
REMARK  223  A    between atoms: _534  and  _535
REMARK  224  A    between atoms: _538  and  _540
REMARK  225  A    between atoms: _540  and  _541
REMARK  226  A    between atoms: _540  and  _543
REMARK  227  A    between atoms: _543  and  _544
REMARK  228  A    between atoms: _550  and  _552
REMARK  229  A    between atoms: _552  and  _553
REMARK  230  A    between atoms: _555  and  _557
REMARK  231  A    between atoms: _557  and  _558
REMARK  232  A    between atoms: _557  and  _560
REMARK  233  A    between atoms: _560  and  _561
REMARK  234  A    between atoms: _561  and  _562
REMARK  235  A    between atoms: _562  and  _563
REMARK  236  A    between atoms: _572  and  _574
REMARK  237  A    between atoms: _574  and  _575
REMARK  238  A    between atoms: _574  and  _577
REMARK  239  A    between atoms: _577  and  _578
REMARK                            x       y       z     vdW  Elec       q    Type
REMARK                         _______ _______ _______ _____ _____    ______ ____
ROOT
ATOM      1  O   HOH     1      16.148   4.112   8.980  0.00  0.00    +0.000 OA
ENDROOT
TORSDOF 0
REMARK  Name = ../refined-set-2016/1hsh/1hsh_pocket.pdb
REMARK  239 active torsions:
REMARK  status: ('A' for Active; 'I' for Inactive)
REMARK    1  A    between atoms: _1  and  _3
REMARK    2  A    between atoms: _3  and  _4
REMARK    3  A    between atoms: _3  and  _6
REMARK    4  A    between atoms: _6  and  _7
REMARK    5  A    between atoms: _7  and  _8
REMARK    6  A    between atoms: _8  and  _9
REMARK    7  A    between atoms: _18  and  _20
REMARK    8  A    between atoms: _20  and  _21
REMARK    9  A    between atoms: _20  and  _23
REMARK   10  A    between atoms: _23  and  _24
REMARK   11  A    between atoms: _27  and  _29
REMARK   12  A    between atoms: _29  and  _30
REMARK   13  A    between atoms: _29  and  _32
REMARK   14  A    between atoms: _32  and  _33
REMARK   15  A    between atoms: _36  and  _38
REMARK   16  A    between atoms: _38  and  _39
REMARK   17  A    between atoms: _38  and  _41
REMARK   18  A    between atoms: _41  and  _42
REMARK   19  A    between atoms: _45  and  _47
REMARK   20  A    between atoms: _47  and  _48
REMARK   21  A    between atoms: _47  and  _50
REMARK   22  A    between atoms: _50  and  _51
REMARK   23  A    between atoms: _54  and  _56
REMARK   24  A    between atoms: _56  and  _57
REMARK   25  A    between atoms: _59  and  _61
REMARK   26  A    between atoms: _61  and  _62
REMARK   27  A    between atoms: _65  and  _67
REMARK   28  A    between atoms: _67  and  _68
REMARK   29  A    between atoms: _67  and  _70
REMARK   30  A    between atoms: _70  and  _71
REMARK   31  A    between atoms: _74  and  _76
REMARK   32  A    between atoms: _76  and  _77
REMARK   33  A    between atoms: _76  and  _79
REMARK   34  A    between atoms: _79  and  _80
REMARK   35  A    between atoms: _83  and  _85
REMARK   36  A    between atoms: _85  and  _86
REMARK   37  A    between atoms: _85  and  _88
REMARK   38  A    between atoms: _88  and  _89
REMARK   39  A    between atoms: _91  and  _93
REMARK   40  A    between atoms: _93  and  _94
REMARK   41  A    between atoms: _93  and  _96
REMARK   42  A    between atoms: _96  and  _97
REMARK   43  A    between atoms: _100  and  _102
REMARK   44  A    between atoms: _102  and  _103
REMARK   45  A    between atoms: _102  and  _105
REMARK   46  A    between atoms: _108  and  _110
REMARK   47  A    between atoms: _110  and  _111
REMARK   48  A    between atoms: _110  and  _113
REMARK   49  A    between atoms: _113  and  _114
REMARK   50  A    between atoms: _114  and  _115
REMARK   51  A    between atoms: _115  and  _116
REMARK   52  A    between atoms: _116  and  _117
REMARK   53  A    between atoms: _121  and  _123
REMARK   54  A    between atoms: _123  and  _124
REMARK   55  A    between atoms: _123  and  _126
REMARK   56  A    between atoms: _126  and  _127
REMARK   57  A    between atoms: _130  and  _132
REMARK   58  A    between atoms: _132  and  _133
REMARK   59  A    between atoms: _132  and  _135
REMARK   60  A    between atoms: _138  and  _140
REMARK   61  A    between atoms: _140  and  _141
REMARK   62  A    between atoms: _143  and  _145
REMARK   63  A    between atoms: _145  and  _146
REMARK   64  A    between atoms: _148  and  _150
REMARK   65  A    between atoms: _150  and  _151
REMARK   66  A    between atoms: _150  and  _153
REMARK   67  A    between atoms: _153  and  _154
REMARK   68  A    between atoms: _157  and  _159
REMARK   69  A    between atoms: _159  and  _160
REMARK   70  A    between atoms: _162  and  _164
REMARK   71  A    between atoms: _164  and  _165
REMARK   72  A    between atoms: _167  and  _169
REMARK   73  A    between atoms: _169  and  _170
REMARK   74  A    between atoms: _169  and  _172
REMARK   75  A    between atoms: _172  and  _173
REMARK   76  A    between atoms: _179  and  _181
REMARK   77  A    between atoms: _181  and  _182
REMARK   78  A    between atoms: _181  and  _184
REMARK   79  A    between atoms: _184  and  _185
REMARK   80  A    between atoms: _188  and  _190
REMARK   81  A    between atoms: _190  and  _191
REMARK   82  A    between atoms: _190  and  _193
REMARK   83  A    between atoms: _193  and  _194
REMARK   84  A    between atoms: _197  and  _199
REMARK   85  A    between atoms: _199  and  _200
REMARK   86  A    between atoms: _199  and  _202
REMARK   87  A    between atoms: _202  and  _203
REMARK   88  A    between atoms: _203  and  _204
REMARK   89  A    between atoms: _206  and  _208
REMARK   90  A    between atoms: _208  and  _209
REMARK   91  A    between atoms: _208  and  _211
REMARK   92  A    between atoms: _211  and  _212
REMARK   93  A    between atoms: _216  and  _217
REMARK   94  A    between atoms: _222  and  _224
REMARK   95  A    between atoms: _224  and  _225
REMARK   96  A    between atoms: _224  and  _227
REMARK   97  A    between atoms: _227  and  _228
REMARK   98  A    between atoms: _231  and  _233
REMARK   99  A    between atoms: _233  and  _234
REMARK  100  A    between atoms: _233  and  _236
REMARK  101  A    between atoms: _236  and  _237
REMARK  102  A    between atoms: _242  and  _244
REMARK  103  A    between atoms: _244  and  _245
REMARK  104  A    between atoms: _244  and  _247
REMARK  105  A    between atoms: _247  and  _248
REMARK  106  A    between atoms: _251  and  _253
REMARK  107  A    between atoms: _253  and  _254
REMARK  108  A    between atoms: _253  and  _256
REMARK  109  A    between atoms: _256  and  _257
REMARK  110  A    between atoms: _263  and  _265
REMARK  111  A    between atoms: _265  and  _266
REMARK  112  A    between atoms: _268  and  _270
REMARK  113  A    between atoms: _270  and  _271
REMARK  114  A    between atoms: _270  and  _273
REMARK  115  A    between atoms: _273  and  _274
REMARK  116  A    between atoms: _274  and  _275
REMARK  117  A    between atoms: _275  and  _276
REMARK  118  A    between atoms: _285  and  _287
REMARK  119  A    between atoms: _287  and  _288
REMARK  120  A    between atoms: _287  and  _290
REMARK  121  A    between atoms: _290  and  _291
REMARK  122  A    between atoms: _296  and  _298
REMARK  123  A    between atoms: _298  and  _299
REMARK  124  A    between atoms: _298  and  _301
REMARK  125  A    between atoms: _301  and  _302
REMARK  126  A    between atoms: _302  and  _303
REMARK  127  A    between atoms: _303  and  _304
REMARK  128  A    between atoms: _313  and  _315
REMARK  129  A    between atoms: _315  and  _316
REMARK  130  A    between atoms: _315  and  _318
REMARK  131  A    between atoms: _318  and  _319
REMARK  132  A    between atoms: _322  and  _324
REMARK  133  A    between atoms: _324  and  _325
REMARK  134  A    between atoms: _324  and  _327
REMARK  135  A    between atoms: _327  and  _328
REMARK  136  A    between atoms: _331  and  _333
REMARK  137  A    between atoms: _333  and  _334
REMARK  138  A    between atoms: _333  and  _336
REMARK  139  A    between atoms: _336  and  _337
REMARK  140  A    between atoms: _340  and  _342
REMARK  141  A    between atoms: _342  and  _343
REMARK  142  A    between atoms: _342  and  _345
REMARK  143  A    between atoms: _345  and  _346
REMARK  144  A    between atoms: _349  and  _351
REMARK  145  A    between atoms: _351  and  _352
REMARK  146  A    between atoms: _354  and  _356
REMARK  147  A    between atoms: _356  and  _357
REMARK  148  A    between atoms: _360  and  _362
REMARK  149  A    between atoms: _362  and  _363
REMARK  150  A    between atoms: _362  and  _365
REMARK  151  A    between atoms: _365  and  _366
REMARK  152  A    between atoms: _369  and  _371
REMARK  153  A    between atoms: _371  and  _372
REMARK  154  A    between atoms: _371  and  _374
REMARK  155  A    between atoms: _374  and  _375
REMARK  156  A    between atoms: _378  and  _380
REMARK  157  A    between atoms: _380  and  _381
REMARK  158  A    between atoms: _380  and  _383
REMARK  159  A    between atoms: _383  and  _384
REMARK  160  A    between atoms: _386  and  _388
REMARK  161  A    between atoms: _388  and  _389
REMARK  162  A    between atoms: _388  and  _391
REMARK  163  A    between atoms: _391  and  _392
REMARK  164  A    between atoms: _395  and  _397
REMARK  165  A    between atoms: _397  and  _398
REMARK  166  A    between atoms: _397  and  _400
REMARK  167  A    between atoms: _400  and  _401
REMARK  168  A    between atoms: _401  and  _402
REMARK  169  A    between atoms: _402  and  _403
REMARK  170  A    between atoms: _403  and  _404
REMARK  171  A    between atoms: _408  and  _410
REMARK  172  A    between atoms: _410  and  _411
REMARK  173  A    between atoms: _410  and  _413
REMARK  174  A    between atoms: _413  and  _414
REMARK  175  A    between atoms: _417  and  _419
REMARK  176  A    between atoms: _419  and  _420
REMARK  177  A    between atoms: _419  and  _422
REMARK  178  A    between atoms: _425  and  _427
REMARK  179  A    between atoms: _427  and  _428
REMARK  180  A    between atoms: _430  and  _432
REMARK  181  A    between atoms: _432  and  _433
REMARK  182  A    between atoms: _435  and  _437
REMARK  183  A    between atoms: _437  and  _438
REMARK  184  A    between atoms: _437  and  _440
REMARK  185  A    between atoms: _440  and  _441
REMARK  186  A    between atoms: _444  and  _446
REMARK  187  A    between atoms: _446  and  _447
REMARK  188  A    between atoms: _449  and  _451
REMARK  189  A    between atoms: _451  and  _452
REMARK  190  A    between atoms: _454  and  _456
REMARK  191  A    between atoms: _456  and  _457
REMARK  192  A    between atoms: _456  and  _459
REMARK  193  A    between atoms: _459  and  _460
REMARK  194  A    between atoms: _466  and  _468
REMARK  195  A    between atoms: _468  and  _469
REMARK  196  A    between atoms: _468  and  _471
REMARK  197  A    between atoms: _471  and  _472
REMARK  198  A    between atoms: _475  and  _477
REMARK  199  A    between atoms: _477  and  _478
REMARK  200  A    between atoms: _477  and  _480
REMARK  201  A    between atoms: _480  and  _481
REMARK  202  A    between atoms: _484  and  _486
REMARK  203  A    between atoms: _486  and  _487
REMARK  204  A    between atoms: _486  and  _489
REMARK  205  A    between atoms: _489  and  _490
REMARK  206  A    between atoms: _490  and  _491
REMARK  207  A    between atoms: _493  and  _495
REMARK  208  A    between atoms: _495  and  _496
REMARK  209  A    between atoms: _495  and  _498
REMARK  210  A    between atoms: _498  and  _499
REMARK  211  A    between atoms: _503  and  _504
REMARK  212  A    between atoms: _509  and  _511
REMARK  213  A    between atoms: _511  and  _512
REMARK  214  A    between atoms: _511  and  _514
REMARK  215  A    between atoms: _514  and  _515
REMARK  216  A    between atoms: _518  and  _520
REMARK  217  A    between atoms: _520  and  _521
REMARK  218  A    between atoms: _520  and  _523
REMARK  219  A    between atoms: _523  and  _524
REMARK  220  A    between atoms: _529  and  _531
REMARK  221  A    between atoms: _531  and  _532
REMARK  222  A    between atoms: _531  and  _534
REMARK  223  A    between atoms: _534  and  _535
REMARK  224  A    between atoms: _538  and  _540
REMARK  225  A    between atoms: _540  and  _541
REMARK  226  A    between atoms: _540  and  _543
REMARK  227  A    between atoms: _543  and  _544
REMARK  228  A    between atoms: _550  and  _552
REMARK  229  A    between atoms: _552  and  _553
REMARK  230  A    between atoms: _555  and  _557
REMARK  231  A    between atoms: _557  and  _558
REMARK  232  A    between atoms: _557  and  _560
REMARK  233  A    between atoms: _560  and  _561
REMARK  234  A    between atoms: _561  and  _562
REMARK  235  A    between atoms: _562  and  _563
REMARK  236  A    between atoms: _572  and  _574
REMARK  237  A    between atoms: _574  and  _575
REMARK  238  A    between atoms: _574  and  _577
REMARK  239  A    between atoms: _577  and  _578
REMARK                            x       y       z     vdW  Elec       q    Type
REMARK                         _______ _______ _______ _____ _____    ______ ____
ROOT
ATOM      1  O   HOH     1      14.150  12.820  12.634  0.00  0.00    +0.000 OA
ENDROOT
TORSDOF 0
REMARK  Name = ../refined-set-2016/1hsh/1hsh_pocket.pdb
REMARK  239 active torsions:
REMARK  status: ('A' for Active; 'I' for Inactive)
REMARK    1  A    between atoms: _1  and  _3
REMARK    2  A    between atoms: _3  and  _4
REMARK    3  A    between atoms: _3  and  _6
REMARK    4  A    between atoms: _6  and  _7
REMARK    5  A    between atoms: _7  and  _8
REMARK    6  A    between atoms: _8  and  _9
REMARK    7  A    between atoms: _18  and  _20
REMARK    8  A    between atoms: _20  and  _21
REMARK    9  A    between atoms: _20  and  _23
REMARK   10  A    between atoms: _23  and  _24
REMARK   11  A    between atoms: _27  and  _29
REMARK   12  A    between atoms: _29  and  _30
REMARK   13  A    between atoms: _29  and  _32
REMARK   14  A    between atoms: _32  and  _33
REMARK   15  A    between atoms: _36  and  _38
REMARK   16  A    between atoms: _38  and  _39
REMARK   17  A    between atoms: _38  and  _41
REMARK   18  A    between atoms: _41  and  _42
REMARK   19  A    between atoms: _45  and  _47
REMARK   20  A    between atoms: _47  and  _48
REMARK   21  A    between atoms: _47  and  _50
REMARK   22  A    between atoms: _50  and  _51
REMARK   23  A    between atoms: _54  and  _56
REMARK   24  A    between atoms: _56  and  _57
REMARK   25  A    between atoms: _59  and  _61
REMARK   26  A    between atoms: _61  and  _62
REMARK   27  A    between atoms: _65  and  _67
REMARK   28  A    between atoms: _67  and  _68
REMARK   29  A    between atoms: _67  and  _70
REMARK   30  A    between atoms: _70  and  _71
REMARK   31  A    between atoms: _74  and  _76
REMARK   32  A    between atoms: _76  and  _77
REMARK   33  A    between atoms: _76  and  _79
REMARK   34  A    between atoms: _79  and  _80
REMARK   35  A    between atoms: _83  and  _85
REMARK   36  A    between atoms: _85  and  _86
REMARK   37  A    between atoms: _85  and  _88
REMARK   38  A    between atoms: _88  and  _89
REMARK   39  A    between atoms: _91  and  _93
REMARK   40  A    between atoms: _93  and  _94
REMARK   41  A    between atoms: _93  and  _96
REMARK   42  A    between atoms: _96  and  _97
REMARK   43  A    between atoms: _100  and  _102
REMARK   44  A    between atoms: _102  and  _103
REMARK   45  A    between atoms: _102  and  _105
REMARK   46  A    between atoms: _108  and  _110
REMARK   47  A    between atoms: _110  and  _111
REMARK   48  A    between atoms: _110  and  _113
REMARK   49  A    between atoms: _113  and  _114
REMARK   50  A    between atoms: _114  and  _115
REMARK   51  A    between atoms: _115  and  _116
REMARK   52  A    between atoms: _116  and  _117
REMARK   53  A    between atoms: _121  and  _123
REMARK   54  A    between atoms: _123  and  _124
REMARK   55  A    between atoms: _123  and  _126
REMARK   56  A    between atoms: _126  and  _127
REMARK   57  A    between atoms: _130  and  _132
REMARK   58  A    between atoms: _132  and  _133
REMARK   59  A    between atoms: _132  and  _135
REMARK   60  A    between atoms: _138  and  _140
REMARK   61  A    between atoms: _140  and  _141
REMARK   62  A    between atoms: _143  and  _145
REMARK   63  A    between atoms: _145  and  _146
REMARK   64  A    between atoms: _148  and  _150
REMARK   65  A    between atoms: _150  and  _151
REMARK   66  A    between atoms: _150  and  _153
REMARK   67  A    between atoms: _153  and  _154
REMARK   68  A    between atoms: _157  and  _159
REMARK   69  A    between atoms: _159  and  _160
REMARK   70  A    between atoms: _162  and  _164
REMARK   71  A    between atoms: _164  and  _165
REMARK   72  A    between atoms: _167  and  _169
REMARK   73  A    between atoms: _169  and  _170
REMARK   74  A    between atoms: _169  and  _172
REMARK   75  A    between atoms: _172  and  _173
REMARK   76  A    between atoms: _179  and  _181
REMARK   77  A    between atoms: _181  and  _182
REMARK   78  A    between atoms: _181  and  _184
REMARK   79  A    between atoms: _184  and  _185
REMARK   80  A    between atoms: _188  and  _190
REMARK   81  A    between atoms: _190  and  _191
REMARK   82  A    between atoms: _190  and  _193
REMARK   83  A    between atoms: _193  and  _194
REMARK   84  A    between atoms: _197  and  _199
REMARK   85  A    between atoms: _199  and  _200
REMARK   86  A    between atoms: _199  and  _202
REMARK   87  A    between atoms: _202  and  _203
REMARK   88  A    between atoms: _203  and  _204
REMARK   89  A    between atoms: _206  and  _208
REMARK   90  A    between atoms: _208  and  _209
REMARK   91  A    between atoms: _208  and  _211
REMARK   92  A    between atoms: _211  and  _212
REMARK   93  A    between atoms: _216  and  _217
REMARK   94  A    between atoms: _222  and  _224
REMARK   95  A    between atoms: _224  and  _225
REMARK   96  A    between atoms: _224  and  _227
REMARK   97  A    between atoms: _227  and  _228
REMARK   98  A    between atoms: _231  and  _233
REMARK   99  A    between atoms: _233  and  _234
REMARK  100  A    between atoms: _233  and  _236
REMARK  101  A    between atoms: _236  and  _237
REMARK  102  A    between atoms: _242  and  _244
REMARK  103  A    between atoms: _244  and  _245
REMARK  104  A    between atoms: _244  and  _247
REMARK  105  A    between atoms: _247  and  _248
REMARK  106  A    between atoms: _251  and  _253
REMARK  107  A    between atoms: _253  and  _254
REMARK  108  A    between atoms: _253  and  _256
REMARK  109  A    between atoms: _256  and  _257
REMARK  110  A    between atoms: _263  and  _265
REMARK  111  A    between atoms: _265  and  _266
REMARK  112  A    between atoms: _268  and  _270
REMARK  113  A    between atoms: _270  and  _271
REMARK  114  A    between atoms: _270  and  _273
REMARK  115  A    between atoms: _273  and  _274
REMARK  116  A    between atoms: _274  and  _275
REMARK  117  A    between atoms: _275  and  _276
REMARK  118  A    between atoms: _285  and  _287
REMARK  119  A    between atoms: _287  and  _288
REMARK  120  A    between atoms: _287  and  _290
REMARK  121  A    between atoms: _290  and  _291
REMARK  122  A    between atoms: _296  and  _298
REMARK  123  A    between atoms: _298  and  _299
REMARK  124  A    between atoms: _298  and  _301
REMARK  125  A    between atoms: _301  and  _302
REMARK  126  A    between atoms: _302  and  _303
REMARK  127  A    between atoms: _303  and  _304
REMARK  128  A    between atoms: _313  and  _315
REMARK  129  A    between atoms: _315  and  _316
REMARK  130  A    between atoms: _315  and  _318
REMARK  131  A    between atoms: _318  and  _319
REMARK  132  A    between atoms: _322  and  _324
REMARK  133  A    between atoms: _324  and  _325
REMARK  134  A    between atoms: _324  and  _327
REMARK  135  A    between atoms: _327  and  _328
REMARK  136  A    between atoms: _331  and  _333
REMARK  137  A    between atoms: _333  and  _334
REMARK  138  A    between atoms: _333  and  _336
REMARK  139  A    between atoms: _336  and  _337
REMARK  140  A    between atoms: _340  and  _342
REMARK  141  A    between atoms: _342  and  _343
REMARK  142  A    between atoms: _342  and  _345
REMARK  143  A    between atoms: _345  and  _346
REMARK  144  A    between atoms: _349  and  _351
REMARK  145  A    between atoms: _351  and  _352
REMARK  146  A    between atoms: _354  and  _356
REMARK  147  A    between atoms: _356  and  _357
REMARK  148  A    between atoms: _360  and  _362
REMARK  149  A    between atoms: _362  and  _363
REMARK  150  A    between atoms: _362  and  _365
REMARK  151  A    between atoms: _365  and  _366
REMARK  152  A    between atoms: _369  and  _371
REMARK  153  A    between atoms: _371  and  _372
REMARK  154  A    between atoms: _371  and  _374
REMARK  155  A    between atoms: _374  and  _375
REMARK  156  A    between atoms: _378  and  _380
REMARK  157  A    between atoms: _380  and  _381
REMARK  158  A    between atoms: _380  and  _383
REMARK  159  A    between atoms: _383  and  _384
REMARK  160  A    between atoms: _386  and  _388
REMARK  161  A    between atoms: _388  and  _389
REMARK  162  A    between atoms: _388  and  _391
REMARK  163  A    between atoms: _391  and  _392
REMARK  164  A    between atoms: _395  and  _397
REMARK  165  A    between atoms: _397  and  _398
REMARK  166  A    between atoms: _397  and  _400
REMARK  167  A    between atoms: _400  and  _401
REMARK  168  A    between atoms: _401  and  _402
REMARK  169  A    between atoms: _402  and  _403
REMARK  170  A    between atoms: _403  and  _404
REMARK  171  A    between atoms: _408  and  _410
REMARK  172  A    between atoms: _410  and  _411
REMARK  173  A    between atoms: _410  and  _413
REMARK  174  A    between atoms: _413  and  _414
REMARK  175  A    between atoms: _417  and  _419
REMARK  176  A    between atoms: _419  and  _420
REMARK  177  A    between atoms: _419  and  _422
REMARK  178  A    between atoms: _425  and  _427
REMARK  179  A    between atoms: _427  and  _428
REMARK  180  A    between atoms: _430  and  _432
REMARK  181  A    between atoms: _432  and  _433
REMARK  182  A    between atoms: _435  and  _437
REMARK  183  A    between atoms: _437  and  _438
REMARK  184  A    between atoms: _437  and  _440
REMARK  185  A    between atoms: _440  and  _441
REMARK  186  A    between atoms: _444  and  _446
REMARK  187  A    between atoms: _446  and  _447
REMARK  188  A    between atoms: _449  and  _451
REMARK  189  A    between atoms: _451  and  _452
REMARK  190  A    between atoms: _454  and  _456
REMARK  191  A    between atoms: _456  and  _457
REMARK  192  A    between atoms: _456  and  _459
REMARK  193  A    between atoms: _459  and  _460
REMARK  194  A    between atoms: _466  and  _468
REMARK  195  A    between atoms: _468  and  _469
REMARK  196  A    between atoms: _468  and  _471
REMARK  197  A    between atoms: _471  and  _472
REMARK  198  A    between atoms: _475  and  _477
REMARK  199  A    between atoms: _477  and  _478
REMARK  200  A    between atoms: _477  and  _480
REMARK  201  A    between atoms: _480  and  _481
REMARK  202  A    between atoms: _484  and  _486
REMARK  203  A    between atoms: _486  and  _487
REMARK  204  A    between atoms: _486  and  _489
REMARK  205  A    between atoms: _489  and  _490
REMARK  206  A    between atoms: _490  and  _491
REMARK  207  A    between atoms: _493  and  _495
REMARK  208  A    between atoms: _495  and  _496
REMARK  209  A    between atoms: _495  and  _498
REMARK  210  A    between atoms: _498  and  _499
REMARK  211  A    between atoms: _503  and  _504
REMARK  212  A    between atoms: _509  and  _511
REMARK  213  A    between atoms: _511  and  _512
REMARK  214  A    between atoms: _511  and  _514
REMARK  215  A    between atoms: _514  and  _515
REMARK  216  A    between atoms: _518  and  _520
REMARK  217  A    between atoms: _520  and  _521
REMARK  218  A    between atoms: _520  and  _523
REMARK  219  A    between atoms: _523  and  _524
REMARK  220  A    between atoms: _529  and  _531
REMARK  221  A    between atoms: _531  and  _532
REMARK  222  A    between atoms: _531  and  _534
REMARK  223  A    between atoms: _534  and  _535
REMARK  224  A    between atoms: _538  and  _540
REMARK  225  A    between atoms: _540  and  _541
REMARK  226  A    between atoms: _540  and  _543
REMARK  227  A    between atoms: _543  and  _544
REMARK  228  A    between atoms: _550  and  _552
REMARK  229  A    between atoms: _552  and  _553
REMARK  230  A    between atoms: _555  and  _557
REMARK  231  A    between atoms: _557  and  _558
REMARK  232  A    between atoms: _557  and  _560
REMARK  233  A    between atoms: _560  and  _561
REMARK  234  A    between atoms: _561  and  _562
REMARK  235  A    between atoms: _562  and  _563
REMARK  236  A    between atoms: _572  and  _574
REMARK  237  A    between atoms: _574  and  _575
REMARK  238  A    between atoms: _574  and  _577
REMARK  239  A    between atoms: _577  and  _578
REMARK                            x       y       z     vdW  Elec       q    Type
REMARK                         _______ _______ _______ _____ _____    ______ ____
ROOT
ATOM      1  O   HOH     1       9.519  -2.204  -1.294  0.00  0.00    +0.000 OA
ENDROOT
TORSDOF 0
REMARK  Name = ../refined-set-2016/1hsh/1hsh_pocket.pdb
REMARK  239 active torsions:
REMARK  status: ('A' for Active; 'I' for Inactive)
REMARK    1  A    between atoms: _1  and  _3
REMARK    2  A    between atoms: _3  and  _4
REMARK    3  A    between atoms: _3  and  _6
REMARK    4  A    between atoms: _6  and  _7
REMARK    5  A    between atoms: _7  and  _8
REMARK    6  A    between atoms: _8  and  _9
REMARK    7  A    between atoms: _18  and  _20
REMARK    8  A    between atoms: _20  and  _21
REMARK    9  A    between atoms: _20  and  _23
REMARK   10  A    between atoms: _23  and  _24
REMARK   11  A    between atoms: _27  and  _29
REMARK   12  A    between atoms: _29  and  _30
REMARK   13  A    between atoms: _29  and  _32
REMARK   14  A    between atoms: _32  and  _33
REMARK   15  A    between atoms: _36  and  _38
REMARK   16  A    between atoms: _38  and  _39
REMARK   17  A    between atoms: _38  and  _41
REMARK   18  A    between atoms: _41  and  _42
REMARK   19  A    between atoms: _45  and  _47
REMARK   20  A    between atoms: _47  and  _48
REMARK   21  A    between atoms: _47  and  _50
REMARK   22  A    between atoms: _50  and  _51
REMARK   23  A    between atoms: _54  and  _56
REMARK   24  A    between atoms: _56  and  _57
REMARK   25  A    between atoms: _59  and  _61
REMARK   26  A    between atoms: _61  and  _62
REMARK   27  A    between atoms: _65  and  _67
REMARK   28  A    between atoms: _67  and  _68
REMARK   29  A    between atoms: _67  and  _70
REMARK   30  A    between atoms: _70  and  _71
REMARK   31  A    between atoms: _74  and  _76
REMARK   32  A    between atoms: _76  and  _77
REMARK   33  A    between atoms: _76  and  _79
REMARK   34  A    between atoms: _79  and  _80
REMARK   35  A    between atoms: _83  and  _85
REMARK   36  A    between atoms: _85  and  _86
REMARK   37  A    between atoms: _85  and  _88
REMARK   38  A    between atoms: _88  and  _89
REMARK   39  A    between atoms: _91  and  _93
REMARK   40  A    between atoms: _93  and  _94
REMARK   41  A    between atoms: _93  and  _96
REMARK   42  A    between atoms: _96  and  _97
REMARK   43  A    between atoms: _100  and  _102
REMARK   44  A    between atoms: _102  and  _103
REMARK   45  A    between atoms: _102  and  _105
REMARK   46  A    between atoms: _108  and  _110
REMARK   47  A    between atoms: _110  and  _111
REMARK   48  A    between atoms: _110  and  _113
REMARK   49  A    between atoms: _113  and  _114
REMARK   50  A    between atoms: _114  and  _115
REMARK   51  A    between atoms: _115  and  _116
REMARK   52  A    between atoms: _116  and  _117
REMARK   53  A    between atoms: _121  and  _123
REMARK   54  A    between atoms: _123  and  _124
REMARK   55  A    between atoms: _123  and  _126
REMARK   56  A    between atoms: _126  and  _127
REMARK   57  A    between atoms: _130  and  _132
REMARK   58  A    between atoms: _132  and  _133
REMARK   59  A    between atoms: _132  and  _135
REMARK   60  A    between atoms: _138  and  _140
REMARK   61  A    between atoms: _140  and  _141
REMARK   62  A    between atoms: _143  and  _145
REMARK   63  A    between atoms: _145  and  _146
REMARK   64  A    between atoms: _148  and  _150
REMARK   65  A    between atoms: _150  and  _151
REMARK   66  A    between atoms: _150  and  _153
REMARK   67  A    between atoms: _153  and  _154
REMARK   68  A    between atoms: _157  and  _159
REMARK   69  A    between atoms: _159  and  _160
REMARK   70  A    between atoms: _162  and  _164
REMARK   71  A    between atoms: _164  and  _165
REMARK   72  A    between atoms: _167  and  _169
REMARK   73  A    between atoms: _169  and  _170
REMARK   74  A    between atoms: _169  and  _172
REMARK   75  A    between atoms: _172  and  _173
REMARK   76  A    between atoms: _179  and  _181
REMARK   77  A    between atoms: _181  and  _182
REMARK   78  A    between atoms: _181  and  _184
REMARK   79  A    between atoms: _184  and  _185
REMARK   80  A    between atoms: _188  and  _190
REMARK   81  A    between atoms: _190  and  _191
REMARK   82  A    between atoms: _190  and  _193
REMARK   83  A    between atoms: _193  and  _194
REMARK   84  A    between atoms: _197  and  _199
REMARK   85  A    between atoms: _199  and  _200
REMARK   86  A    between atoms: _199  and  _202
REMARK   87  A    between atoms: _202  and  _203
REMARK   88  A    between atoms: _203  and  _204
REMARK   89  A    between atoms: _206  and  _208
REMARK   90  A    between atoms: _208  and  _209
REMARK   91  A    between atoms: _208  and  _211
REMARK   92  A    between atoms: _211  and  _212
REMARK   93  A    between atoms: _216  and  _217
REMARK   94  A    between atoms: _222  and  _224
REMARK   95  A    between atoms: _224  and  _225
REMARK   96  A    between atoms: _224  and  _227
REMARK   97  A    between atoms: _227  and  _228
REMARK   98  A    between atoms: _231  and  _233
REMARK   99  A    between atoms: _233  and  _234
REMARK  100  A    between atoms: _233  and  _236
REMARK  101  A    between atoms: _236  and  _237
REMARK  102  A    between atoms: _242  and  _244
REMARK  103  A    between atoms: _244  and  _245
REMARK  104  A    between atoms: _244  and  _247
REMARK  105  A    between atoms: _247  and  _248
REMARK  106  A    between atoms: _251  and  _253
REMARK  107  A    between atoms: _253  and  _254
REMARK  108  A    between atoms: _253  and  _256
REMARK  109  A    between atoms: _256  and  _257
REMARK  110  A    between atoms: _263  and  _265
REMARK  111  A    between atoms: _265  and  _266
REMARK  112  A    between atoms: _268  and  _270
REMARK  113  A    between atoms: _270  and  _271
REMARK  114  A    between atoms: _270  and  _273
REMARK  115  A    between atoms: _273  and  _274
REMARK  116  A    between atoms: _274  and  _275
REMARK  117  A    between atoms: _275  and  _276
REMARK  118  A    between atoms: _285  and  _287
REMARK  119  A    between atoms: _287  and  _288
REMARK  120  A    between atoms: _287  and  _290
REMARK  121  A    between atoms: _290  and  _291
REMARK  122  A    between atoms: _296  and  _298
REMARK  123  A    between atoms: _298  and  _299
REMARK  124  A    between atoms: _298  and  _301
REMARK  125  A    between atoms: _301  and  _302
REMARK  126  A    between atoms: _302  and  _303
REMARK  127  A    between atoms: _303  and  _304
REMARK  128  A    between atoms: _313  and  _315
REMARK  129  A    between atoms: _315  and  _316
REMARK  130  A    between atoms: _315  and  _318
REMARK  131  A    between atoms: _318  and  _319
REMARK  132  A    between atoms: _322  and  _324
REMARK  133  A    between atoms: _324  and  _325
REMARK  134  A    between atoms: _324  and  _327
REMARK  135  A    between atoms: _327  and  _328
REMARK  136  A    between atoms: _331  and  _333
REMARK  137  A    between atoms: _333  and  _334
REMARK  138  A    between atoms: _333  and  _336
REMARK  139  A    between atoms: _336  and  _337
REMARK  140  A    between atoms: _340  and  _342
REMARK  141  A    between atoms: _342  and  _343
REMARK  142  A    between atoms: _342  and  _345
REMARK  143  A    between atoms: _345  and  _346
REMARK  144  A    between atoms: _349  and  _351
REMARK  145  A    between atoms: _351  and  _352
REMARK  146  A    between atoms: _354  and  _356
REMARK  147  A    between atoms: _356  and  _357
REMARK  148  A    between atoms: _360  and  _362
REMARK  149  A    between atoms: _362  and  _363
REMARK  150  A    between atoms: _362  and  _365
REMARK  151  A    between atoms: _365  and  _366
REMARK  152  A    between atoms: _369  and  _371
REMARK  153  A    between atoms: _371  and  _372
REMARK  154  A    between atoms: _371  and  _374
REMARK  155  A    between atoms: _374  and  _375
REMARK  156  A    between atoms: _378  and  _380
REMARK  157  A    between atoms: _380  and  _381
REMARK  158  A    between atoms: _380  and  _383
REMARK  159  A    between atoms: _383  and  _384
REMARK  160  A    between atoms: _386  and  _388
REMARK  161  A    between atoms: _388  and  _389
REMARK  162  A    between atoms: _388  and  _391
REMARK  163  A    between atoms: _391  and  _392
REMARK  164  A    between atoms: _395  and  _397
REMARK  165  A    between atoms: _397  and  _398
REMARK  166  A    between atoms: _397  and  _400
REMARK  167  A    between atoms: _400  and  _401
REMARK  168  A    between atoms: _401  and  _402
REMARK  169  A    between atoms: _402  and  _403
REMARK  170  A    between atoms: _403  and  _404
REMARK  171  A    between atoms: _408  and  _410
REMARK  172  A    between atoms: _410  and  _411
REMARK  173  A    between atoms: _410  and  _413
REMARK  174  A    between atoms: _413  and  _414
REMARK  175  A    between atoms: _417  and  _419
REMARK  176  A    between atoms: _419  and  _420
REMARK  177  A    between atoms: _419  and  _422
REMARK  178  A    between atoms: _425  and  _427
REMARK  179  A    between atoms: _427  and  _428
REMARK  180  A    between atoms: _430  and  _432
REMARK  181  A    between atoms: _432  and  _433
REMARK  182  A    between atoms: _435  and  _437
REMARK  183  A    between atoms: _437  and  _438
REMARK  184  A    between atoms: _437  and  _440
REMARK  185  A    between atoms: _440  and  _441
REMARK  186  A    between atoms: _444  and  _446
REMARK  187  A    between atoms: _446  and  _447
REMARK  188  A    between atoms: _449  and  _451
REMARK  189  A    between atoms: _451  and  _452
REMARK  190  A    between atoms: _454  and  _456
REMARK  191  A    between atoms: _456  and  _457
REMARK  192  A    between atoms: _456  and  _459
REMARK  193  A    between atoms: _459  and  _460
REMARK  194  A    between atoms: _466  and  _468
REMARK  195  A    between atoms: _468  and  _469
REMARK  196  A    between atoms: _468  and  _471
REMARK  197  A    between atoms: _471  and  _472
REMARK  198  A    between atoms: _475  and  _477
REMARK  199  A    between atoms: _477  and  _478
REMARK  200  A    between atoms: _477  and  _480
REMARK  201  A    between atoms: _480  and  _481
REMARK  202  A    between atoms: _484  and  _486
REMARK  203  A    between atoms: _486  and  _487
REMARK  204  A    between atoms: _486  and  _489
REMARK  205  A    between atoms: _489  and  _490
REMARK  206  A    between atoms: _490  and  _491
REMARK  207  A    between atoms: _493  and  _495
REMARK  208  A    between atoms: _495  and  _496
REMARK  209  A    between atoms: _495  and  _498
REMARK  210  A    between atoms: _498  and  _499
REMARK  211  A    between atoms: _503  and  _504
REMARK  212  A    between atoms: _509  and  _511
REMARK  213  A    between atoms: _511  and  _512
REMARK  214  A    between atoms: _511  and  _514
REMARK  215  A    between atoms: _514  and  _515
REMARK  216  A    between atoms: _518  and  _520
REMARK  217  A    between atoms: _520  and  _521
REMARK  218  A    between atoms: _520  and  _523
REMARK  219  A    between atoms: _523  and  _524
REMARK  220  A    between atoms: _529  and  _531
REMARK  221  A    between atoms: _531  and  _532
REMARK  222  A    between atoms: _531  and  _534
REMARK  223  A    between atoms: _534  and  _535
REMARK  224  A    between atoms: _538  and  _540
REMARK  225  A    between atoms: _540  and  _541
REMARK  226  A    between atoms: _540  and  _543
REMARK  227  A    between atoms: _543  and  _544
REMARK  228  A    between atoms: _550  and  _552
REMARK  229  A    between atoms: _552  and  _553
REMARK  230  A    between atoms: _555  and  _557
REMARK  231  A    between atoms: _557  and  _558
REMARK  232  A    between atoms: _557  and  _560
REMARK  233  A    between atoms: _560  and  _561
REMARK  234  A    between atoms: _561  and  _562
REMARK  235  A    between atoms: _562  and  _563
REMARK  236  A    between atoms: _572  and  _574
REMARK  237  A    between atoms: _574  and  _575
REMARK  238  A    between atoms: _574  and  _577
REMARK  239  A    between atoms: _577  and  _578
REMARK                            x       y       z     vdW  Elec       q    Type
REMARK                         _______ _______ _______ _____ _____    ______ ____
ROOT
ATOM      1  O   HOH     1       8.392  -9.117  12.096  0.00  0.00    +0.000 OA
ENDROOT
TORSDOF 0
REMARK  Name = ../refined-set-2016/1hsh/1hsh_pocket.pdb
REMARK  239 active torsions:
REMARK  status: ('A' for Active; 'I' for Inactive)
REMARK    1  A    between atoms: _1  and  _3
REMARK    2  A    between atoms: _3  and  _4
REMARK    3  A    between atoms: _3  and  _6
REMARK    4  A    between atoms: _6  and  _7
REMARK    5  A    between atoms: _7  and  _8
REMARK    6  A    between atoms: _8  and  _9
REMARK    7  A    between atoms: _18  and  _20
REMARK    8  A    between atoms: _20  and  _21
REMARK    9  A    between atoms: _20  and  _23
REMARK   10  A    between atoms: _23  and  _24
REMARK   11  A    between atoms: _27  and  _29
REMARK   12  A    between atoms: _29  and  _30
REMARK   13  A    between atoms: _29  and  _32
REMARK   14  A    between atoms: _32  and  _33
REMARK   15  A    between atoms: _36  and  _38
REMARK   16  A    between atoms: _38  and  _39
REMARK   17  A    between atoms: _38  and  _41
REMARK   18  A    between atoms: _41  and  _42
REMARK   19  A    between atoms: _45  and  _47
REMARK   20  A    between atoms: _47  and  _48
REMARK   21  A    between atoms: _47  and  _50
REMARK   22  A    between atoms: _50  and  _51
REMARK   23  A    between atoms: _54  and  _56
REMARK   24  A    between atoms: _56  and  _57
REMARK   25  A    between atoms: _59  and  _61
REMARK   26  A    between atoms: _61  and  _62
REMARK   27  A    between atoms: _65  and  _67
REMARK   28  A    between atoms: _67  and  _68
REMARK   29  A    between atoms: _67  and  _70
REMARK   30  A    between atoms: _70  and  _71
REMARK   31  A    between atoms: _74  and  _76
REMARK   32  A    between atoms: _76  and  _77
REMARK   33  A    between atoms: _76  and  _79
REMARK   34  A    between atoms: _79  and  _80
REMARK   35  A    between atoms: _83  and  _85
REMARK   36  A    between atoms: _85  and  _86
REMARK   37  A    between atoms: _85  and  _88
REMARK   38  A    between atoms: _88  and  _89
REMARK   39  A    between atoms: _91  and  _93
REMARK   40  A    between atoms: _93  and  _94
REMARK   41  A    between atoms: _93  and  _96
REMARK   42  A    between atoms: _96  and  _97
REMARK   43  A    between atoms: _100  and  _102
REMARK   44  A    between atoms: _102  and  _103
REMARK   45  A    between atoms: _102  and  _105
REMARK   46  A    between atoms: _108  and  _110
REMARK   47  A    between atoms: _110  and  _111
REMARK   48  A    between atoms: _110  and  _113
REMARK   49  A    between atoms: _113  and  _114
REMARK   50  A    between atoms: _114  and  _115
REMARK   51  A    between atoms: _115  and  _116
REMARK   52  A    between atoms: _116  and  _117
REMARK   53  A    between atoms: _121  and  _123
REMARK   54  A    between atoms: _123  and  _124
REMARK   55  A    between atoms: _123  and  _126
REMARK   56  A    between atoms: _126  and  _127
REMARK   57  A    between atoms: _130  and  _132
REMARK   58  A    between atoms: _132  and  _133
REMARK   59  A    between atoms: _132  and  _135
REMARK   60  A    between atoms: _138  and  _140
REMARK   61  A    between atoms: _140  and  _141
REMARK   62  A    between atoms: _143  and  _145
REMARK   63  A    between atoms: _145  and  _146
REMARK   64  A    between atoms: _148  and  _150
REMARK   65  A    between atoms: _150  and  _151
REMARK   66  A    between atoms: _150  and  _153
REMARK   67  A    between atoms: _153  and  _154
REMARK   68  A    between atoms: _157  and  _159
REMARK   69  A    between atoms: _159  and  _160
REMARK   70  A    between atoms: _162  and  _164
REMARK   71  A    between atoms: _164  and  _165
REMARK   72  A    between atoms: _167  and  _169
REMARK   73  A    between atoms: _169  and  _170
REMARK   74  A    between atoms: _169  and  _172
REMARK   75  A    between atoms: _172  and  _173
REMARK   76  A    between atoms: _179  and  _181
REMARK   77  A    between atoms: _181  and  _182
REMARK   78  A    between atoms: _181  and  _184
REMARK   79  A    between atoms: _184  and  _185
REMARK   80  A    between atoms: _188  and  _190
REMARK   81  A    between atoms: _190  and  _191
REMARK   82  A    between atoms: _190  and  _193
REMARK   83  A    between atoms: _193  and  _194
REMARK   84  A    between atoms: _197  and  _199
REMARK   85  A    between atoms: _199  and  _200
REMARK   86  A    between atoms: _199  and  _202
REMARK   87  A    between atoms: _202  and  _203
REMARK   88  A    between atoms: _203  and  _204
REMARK   89  A    between atoms: _206  and  _208
REMARK   90  A    between atoms: _208  and  _209
REMARK   91  A    between atoms: _208  and  _211
REMARK   92  A    between atoms: _211  and  _212
REMARK   93  A    between atoms: _216  and  _217
REMARK   94  A    between atoms: _222  and  _224
REMARK   95  A    between atoms: _224  and  _225
REMARK   96  A    between atoms: _224  and  _227
REMARK   97  A    between atoms: _227  and  _228
REMARK   98  A    between atoms: _231  and  _233
REMARK   99  A    between atoms: _233  and  _234
REMARK  100  A    between atoms: _233  and  _236
REMARK  101  A    between atoms: _236  and  _237
REMARK  102  A    between atoms: _242  and  _244
REMARK  103  A    between atoms: _244  and  _245
REMARK  104  A    between atoms: _244  and  _247
REMARK  105  A    between atoms: _247  and  _248
REMARK  106  A    between atoms: _251  and  _253
REMARK  107  A    between atoms: _253  and  _254
REMARK  108  A    between atoms: _253  and  _256
REMARK  109  A    between atoms: _256  and  _257
REMARK  110  A    between atoms: _263  and  _265
REMARK  111  A    between atoms: _265  and  _266
REMARK  112  A    between atoms: _268  and  _270
REMARK  113  A    between atoms: _270  and  _271
REMARK  114  A    between atoms: _270  and  _273
REMARK  115  A    between atoms: _273  and  _274
REMARK  116  A    between atoms: _274  and  _275
REMARK  117  A    between atoms: _275  and  _276
REMARK  118  A    between atoms: _285  and  _287
REMARK  119  A    between atoms: _287  and  _288
REMARK  120  A    between atoms: _287  and  _290
REMARK  121  A    between atoms: _290  and  _291
REMARK  122  A    between atoms: _296  and  _298
REMARK  123  A    between atoms: _298  and  _299
REMARK  124  A    between atoms: _298  and  _301
REMARK  125  A    between atoms: _301  and  _302
REMARK  126  A    between atoms: _302  and  _303
REMARK  127  A    between atoms: _303  and  _304
REMARK  128  A    between atoms: _313  and  _315
REMARK  129  A    between atoms: _315  and  _316
REMARK  130  A    between atoms: _315  and  _318
REMARK  131  A    between atoms: _318  and  _319
REMARK  132  A    between atoms: _322  and  _324
REMARK  133  A    between atoms: _324  and  _325
REMARK  134  A    between atoms: _324  and  _327
REMARK  135  A    between atoms: _327  and  _328
REMARK  136  A    between atoms: _331  and  _333
REMARK  137  A    between atoms: _333  and  _334
REMARK  138  A    between atoms: _333  and  _336
REMARK  139  A    between atoms: _336  and  _337
REMARK  140  A    between atoms: _340  and  _342
REMARK  141  A    between atoms: _342  and  _343
REMARK  142  A    between atoms: _342  and  _345
REMARK  143  A    between atoms: _345  and  _346
REMARK  144  A    between atoms: _349  and  _351
REMARK  145  A    between atoms: _351  and  _352
REMARK  146  A    between atoms: _354  and  _356
REMARK  147  A    between atoms: _356  and  _357
REMARK  148  A    between atoms: _360  and  _362
REMARK  149  A    between atoms: _362  and  _363
REMARK  150  A    between atoms: _362  and  _365
REMARK  151  A    between atoms: _365  and  _366
REMARK  152  A    between atoms: _369  and  _371
REMARK  153  A    between atoms: _371  and  _372
REMARK  154  A    between atoms: _371  and  _374
REMARK  155  A    between atoms: _374  and  _375
REMARK  156  A    between atoms: _378  and  _380
REMARK  157  A    between atoms: _380  and  _381
REMARK  158  A    between atoms: _380  and  _383
REMARK  159  A    between atoms: _383  and  _384
REMARK  160  A    between atoms: _386  and  _388
REMARK  161  A    between atoms: _388  and  _389
REMARK  162  A    between atoms: _388  and  _391
REMARK  163  A    between atoms: _391  and  _392
REMARK  164  A    between atoms: _395  and  _397
REMARK  165  A    between atoms: _397  and  _398
REMARK  166  A    between atoms: _397  and  _400
REMARK  167  A    between atoms: _400  and  _401
REMARK  168  A    between atoms: _401  and  _402
REMARK  169  A    between atoms: _402  and  _403
REMARK  170  A    between atoms: _403  and  _404
REMARK  171  A    between atoms: _408  and  _410
REMARK  172  A    between atoms: _410  and  _411
REMARK  173  A    between atoms: _410  and  _413
REMARK  174  A    between atoms: _413  and  _414
REMARK  175  A    between atoms: _417  and  _419
REMARK  176  A    between atoms: _419  and  _420
REMARK  177  A    between atoms: _419  and  _422
REMARK  178  A    between atoms: _425  and  _427
REMARK  179  A    between atoms: _427  and  _428
REMARK  180  A    between atoms: _430  and  _432
REMARK  181  A    between atoms: _432  and  _433
REMARK  182  A    between atoms: _435  and  _437
REMARK  183  A    between atoms: _437  and  _438
REMARK  184  A    between atoms: _437  and  _440
REMARK  185  A    between atoms: _440  and  _441
REMARK  186  A    between atoms: _444  and  _446
REMARK  187  A    between atoms: _446  and  _447
REMARK  188  A    between atoms: _449  and  _451
REMARK  189  A    between atoms: _451  and  _452
REMARK  190  A    between atoms: _454  and  _456
REMARK  191  A    between atoms: _456  and  _457
REMARK  192  A    between atoms: _456  and  _459
REMARK  193  A    between atoms: _459  and  _460
REMARK  194  A    between atoms: _466  and  _468
REMARK  195  A    between atoms: _468  and  _469
REMARK  196  A    between atoms: _468  and  _471
REMARK  197  A    between atoms: _471  and  _472
REMARK  198  A    between atoms: _475  and  _477
REMARK  199  A    between atoms: _477  and  _478
REMARK  200  A    between atoms: _477  and  _480
REMARK  201  A    between atoms: _480  and  _481
REMARK  202  A    between atoms: _484  and  _486
REMARK  203  A    between atoms: _486  and  _487
REMARK  204  A    between atoms: _486  and  _489
REMARK  205  A    between atoms: _489  and  _490
REMARK  206  A    between atoms: _490  and  _491
REMARK  207  A    between atoms: _493  and  _495
REMARK  208  A    between atoms: _495  and  _496
REMARK  209  A    between atoms: _495  and  _498
REMARK  210  A    between atoms: _498  and  _499
REMARK  211  A    between atoms: _503  and  _504
REMARK  212  A    between atoms: _509  and  _511
REMARK  213  A    between atoms: _511  and  _512
REMARK  214  A    between atoms: _511  and  _514
REMARK  215  A    between atoms: _514  and  _515
REMARK  216  A    between atoms: _518  and  _520
REMARK  217  A    between atoms: _520  and  _521
REMARK  218  A    between atoms: _520  and  _523
REMARK  219  A    between atoms: _523  and  _524
REMARK  220  A    between atoms: _529  and  _531
REMARK  221  A    between atoms: _531  and  _532
REMARK  222  A    between atoms: _531  and  _534
REMARK  223  A    between atoms: _534  and  _535
REMARK  224  A    between atoms: _538  and  _540
REMARK  225  A    between atoms: _540  and  _541
REMARK  226  A    between atoms: _540  and  _543
REMARK  227  A    between atoms: _543  and  _544
REMARK  228  A    between atoms: _550  and  _552
REMARK  229  A    between atoms: _552  and  _553
REMARK  230  A    between atoms: _555  and  _557
REMARK  231  A    between atoms: _557  and  _558
REMARK  232  A    between atoms: _557  and  _560
REMARK  233  A    between atoms: _560  and  _561
REMARK  234  A    between atoms: _561  and  _562
REMARK  235  A    between atoms: _562  and  _563
REMARK  236  A    between atoms: _572  and  _574
REMARK  237  A    between atoms: _574  and  _575
REMARK  238  A    between atoms: _574  and  _577
REMARK  239  A    between atoms: _577  and  _578
REMARK                            x       y       z     vdW  Elec       q    Type
REMARK                         _______ _______ _______ _____ _____    ______ ____
ROOT
ATOM      1  O   HOH     1      12.615   9.602  12.677  0.00  0.00    +0.000 OA
ENDROOT
TORSDOF 0
REMARK  Name = ../refined-set-2016/1hsh/1hsh_pocket.pdb
REMARK  239 active torsions:
REMARK  status: ('A' for Active; 'I' for Inactive)
REMARK    1  A    between atoms: _1  and  _3
REMARK    2  A    between atoms: _3  and  _4
REMARK    3  A    between atoms: _3  and  _6
REMARK    4  A    between atoms: _6  and  _7
REMARK    5  A    between atoms: _7  and  _8
REMARK    6  A    between atoms: _8  and  _9
REMARK    7  A    between atoms: _18  and  _20
REMARK    8  A    between atoms: _20  and  _21
REMARK    9  A    between atoms: _20  and  _23
REMARK   10  A    between atoms: _23  and  _24
REMARK   11  A    between atoms: _27  and  _29
REMARK   12  A    between atoms: _29  and  _30
REMARK   13  A    between atoms: _29  and  _32
REMARK   14  A    between atoms: _32  and  _33
REMARK   15  A    between atoms: _36  and  _38
REMARK   16  A    between atoms: _38  and  _39
REMARK   17  A    between atoms: _38  and  _41
REMARK   18  A    between atoms: _41  and  _42
REMARK   19  A    between atoms: _45  and  _47
REMARK   20  A    between atoms: _47  and  _48
REMARK   21  A    between atoms: _47  and  _50
REMARK   22  A    between atoms: _50  and  _51
REMARK   23  A    between atoms: _54  and  _56
REMARK   24  A    between atoms: _56  and  _57
REMARK   25  A    between atoms: _59  and  _61
REMARK   26  A    between atoms: _61  and  _62
REMARK   27  A    between atoms: _65  and  _67
REMARK   28  A    between atoms: _67  and  _68
REMARK   29  A    between atoms: _67  and  _70
REMARK   30  A    between atoms: _70  and  _71
REMARK   31  A    between atoms: _74  and  _76
REMARK   32  A    between atoms: _76  and  _77
REMARK   33  A    between atoms: _76  and  _79
REMARK   34  A    between atoms: _79  and  _80
REMARK   35  A    between atoms: _83  and  _85
REMARK   36  A    between atoms: _85  and  _86
REMARK   37  A    between atoms: _85  and  _88
REMARK   38  A    between atoms: _88  and  _89
REMARK   39  A    between atoms: _91  and  _93
REMARK   40  A    between atoms: _93  and  _94
REMARK   41  A    between atoms: _93  and  _96
REMARK   42  A    between atoms: _96  and  _97
REMARK   43  A    between atoms: _100  and  _102
REMARK   44  A    between atoms: _102  and  _103
REMARK   45  A    between atoms: _102  and  _105
REMARK   46  A    between atoms: _108  and  _110
REMARK   47  A    between atoms: _110  and  _111
REMARK   48  A    between atoms: _110  and  _113
REMARK   49  A    between atoms: _113  and  _114
REMARK   50  A    between atoms: _114  and  _115
REMARK   51  A    between atoms: _115  and  _116
REMARK   52  A    between atoms: _116  and  _117
REMARK   53  A    between atoms: _121  and  _123
REMARK   54  A    between atoms: _123  and  _124
REMARK   55  A    between atoms: _123  and  _126
REMARK   56  A    between atoms: _126  and  _127
REMARK   57  A    between atoms: _130  and  _132
REMARK   58  A    between atoms: _132  and  _133
REMARK   59  A    between atoms: _132  and  _135
REMARK   60  A    between atoms: _138  and  _140
REMARK   61  A    between atoms: _140  and  _141
REMARK   62  A    between atoms: _143  and  _145
REMARK   63  A    between atoms: _145  and  _146
REMARK   64  A    between atoms: _148  and  _150
REMARK   65  A    between atoms: _150  and  _151
REMARK   66  A    between atoms: _150  and  _153
REMARK   67  A    between atoms: _153  and  _154
REMARK   68  A    between atoms: _157  and  _159
REMARK   69  A    between atoms: _159  and  _160
REMARK   70  A    between atoms: _162  and  _164
REMARK   71  A    between atoms: _164  and  _165
REMARK   72  A    between atoms: _167  and  _169
REMARK   73  A    between atoms: _169  and  _170
REMARK   74  A    between atoms: _169  and  _172
REMARK   75  A    between atoms: _172  and  _173
REMARK   76  A    between atoms: _179  and  _181
REMARK   77  A    between atoms: _181  and  _182
REMARK   78  A    between atoms: _181  and  _184
REMARK   79  A    between atoms: _184  and  _185
REMARK   80  A    between atoms: _188  and  _190
REMARK   81  A    between atoms: _190  and  _191
REMARK   82  A    between atoms: _190  and  _193
REMARK   83  A    between atoms: _193  and  _194
REMARK   84  A    between atoms: _197  and  _199
REMARK   85  A    between atoms: _199  and  _200
REMARK   86  A    between atoms: _199  and  _202
REMARK   87  A    between atoms: _202  and  _203
REMARK   88  A    between atoms: _203  and  _204
REMARK   89  A    between atoms: _206  and  _208
REMARK   90  A    between atoms: _208  and  _209
REMARK   91  A    between atoms: _208  and  _211
REMARK   92  A    between atoms: _211  and  _212
REMARK   93  A    between atoms: _216  and  _217
REMARK   94  A    between atoms: _222  and  _224
REMARK   95  A    between atoms: _224  and  _225
REMARK   96  A    between atoms: _224  and  _227
REMARK   97  A    between atoms: _227  and  _228
REMARK   98  A    between atoms: _231  and  _233
REMARK   99  A    between atoms: _233  and  _234
REMARK  100  A    between atoms: _233  and  _236
REMARK  101  A    between atoms: _236  and  _237
REMARK  102  A    between atoms: _242  and  _244
REMARK  103  A    between atoms: _244  and  _245
REMARK  104  A    between atoms: _244  and  _247
REMARK  105  A    between atoms: _247  and  _248
REMARK  106  A    between atoms: _251  and  _253
REMARK  107  A    between atoms: _253  and  _254
REMARK  108  A    between atoms: _253  and  _256
REMARK  109  A    between atoms: _256  and  _257
REMARK  110  A    between atoms: _263  and  _265
REMARK  111  A    between atoms: _265  and  _266
REMARK  112  A    between atoms: _268  and  _270
REMARK  113  A    between atoms: _270  and  _271
REMARK  114  A    between atoms: _270  and  _273
REMARK  115  A    between atoms: _273  and  _274
REMARK  116  A    between atoms: _274  and  _275
REMARK  117  A    between atoms: _275  and  _276
REMARK  118  A    between atoms: _285  and  _287
REMARK  119  A    between atoms: _287  and  _288
REMARK  120  A    between atoms: _287  and  _290
REMARK  121  A    between atoms: _290  and  _291
REMARK  122  A    between atoms: _296  and  _298
REMARK  123  A    between atoms: _298  and  _299
REMARK  124  A    between atoms: _298  and  _301
REMARK  125  A    between atoms: _301  and  _302
REMARK  126  A    between atoms: _302  and  _303
REMARK  127  A    between atoms: _303  and  _304
REMARK  128  A    between atoms: _313  and  _315
REMARK  129  A    between atoms: _315  and  _316
REMARK  130  A    between atoms: _315  and  _318
REMARK  131  A    between atoms: _318  and  _319
REMARK  132  A    between atoms: _322  and  _324
REMARK  133  A    between atoms: _324  and  _325
REMARK  134  A    between atoms: _324  and  _327
REMARK  135  A    between atoms: _327  and  _328
REMARK  136  A    between atoms: _331  and  _333
REMARK  137  A    between atoms: _333  and  _334
REMARK  138  A    between atoms: _333  and  _336
REMARK  139  A    between atoms: _336  and  _337
REMARK  140  A    between atoms: _340  and  _342
REMARK  141  A    between atoms: _342  and  _343
REMARK  142  A    between atoms: _342  and  _345
REMARK  143  A    between atoms: _345  and  _346
REMARK  144  A    between atoms: _349  and  _351
REMARK  145  A    between atoms: _351  and  _352
REMARK  146  A    between atoms: _354  and  _356
REMARK  147  A    between atoms: _356  and  _357
REMARK  148  A    between atoms: _360  and  _362
REMARK  149  A    between atoms: _362  and  _363
REMARK  150  A    between atoms: _362  and  _365
REMARK  151  A    between atoms: _365  and  _366
REMARK  152  A    between atoms: _369  and  _371
REMARK  153  A    between atoms: _371  and  _372
REMARK  154  A    between atoms: _371  and  _374
REMARK  155  A    between atoms: _374  and  _375
REMARK  156  A    between atoms: _378  and  _380
REMARK  157  A    between atoms: _380  and  _381
REMARK  158  A    between atoms: _380  and  _383
REMARK  159  A    between atoms: _383  and  _384
REMARK  160  A    between atoms: _386  and  _388
REMARK  161  A    between atoms: _388  and  _389
REMARK  162  A    between atoms: _388  and  _391
REMARK  163  A    between atoms: _391  and  _392
REMARK  164  A    between atoms: _395  and  _397
REMARK  165  A    between atoms: _397  and  _398
REMARK  166  A    between atoms: _397  and  _400
REMARK  167  A    between atoms: _400  and  _401
REMARK  168  A    between atoms: _401  and  _402
REMARK  169  A    between atoms: _402  and  _403
REMARK  170  A    between atoms: _403  and  _404
REMARK  171  A    between atoms: _408  and  _410
REMARK  172  A    between atoms: _410  and  _411
REMARK  173  A    between atoms: _410  and  _413
REMARK  174  A    between atoms: _413  and  _414
REMARK  175  A    between atoms: _417  and  _419
REMARK  176  A    between atoms: _419  and  _420
REMARK  177  A    between atoms: _419  and  _422
REMARK  178  A    between atoms: _425  and  _427
REMARK  179  A    between atoms: _427  and  _428
REMARK  180  A    between atoms: _430  and  _432
REMARK  181  A    between atoms: _432  and  _433
REMARK  182  A    between atoms: _435  and  _437
REMARK  183  A    between atoms: _437  and  _438
REMARK  184  A    between atoms: _437  and  _440
REMARK  185  A    between atoms: _440  and  _441
REMARK  186  A    between atoms: _444  and  _446
REMARK  187  A    between atoms: _446  and  _447
REMARK  188  A    between atoms: _449  and  _451
REMARK  189  A    between atoms: _451  and  _452
REMARK  190  A    between atoms: _454  and  _456
REMARK  191  A    between atoms: _456  and  _457
REMARK  192  A    between atoms: _456  and  _459
REMARK  193  A    between atoms: _459  and  _460
REMARK  194  A    between atoms: _466  and  _468
REMARK  195  A    between atoms: _468  and  _469
REMARK  196  A    between atoms: _468  and  _471
REMARK  197  A    between atoms: _471  and  _472
REMARK  198  A    between atoms: _475  and  _477
REMARK  199  A    between atoms: _477  and  _478
REMARK  200  A    between atoms: _477  and  _480
REMARK  201  A    between atoms: _480  and  _481
REMARK  202  A    between atoms: _484  and  _486
REMARK  203  A    between atoms: _486  and  _487
REMARK  204  A    between atoms: _486  and  _489
REMARK  205  A    between atoms: _489  and  _490
REMARK  206  A    between atoms: _490  and  _491
REMARK  207  A    between atoms: _493  and  _495
REMARK  208  A    between atoms: _495  and  _496
REMARK  209  A    between atoms: _495  and  _498
REMARK  210  A    between atoms: _498  and  _499
REMARK  211  A    between atoms: _503  and  _504
REMARK  212  A    between atoms: _509  and  _511
REMARK  213  A    between atoms: _511  and  _512
REMARK  214  A    between atoms: _511  and  _514
REMARK  215  A    between atoms: _514  and  _515
REMARK  216  A    between atoms: _518  and  _520
REMARK  217  A    between atoms: _520  and  _521
REMARK  218  A    between atoms: _520  and  _523
REMARK  219  A    between atoms: _523  and  _524
REMARK  220  A    between atoms: _529  and  _531
REMARK  221  A    between atoms: _531  and  _532
REMARK  222  A    between atoms: _531  and  _534
REMARK  223  A    between atoms: _534  and  _535
REMARK  224  A    between atoms: _538  and  _540
REMARK  225  A    between atoms: _540  and  _541
REMARK  226  A    between atoms: _540  and  _543
REMARK  227  A    between atoms: _543  and  _544
REMARK  228  A    between atoms: _550  and  _552
REMARK  229  A    between atoms: _552  and  _553
REMARK  230  A    between atoms: _555  and  _557
REMARK  231  A    between atoms: _557  and  _558
REMARK  232  A    between atoms: _557  and  _560
REMARK  233  A    between atoms: _560  and  _561
REMARK  234  A    between atoms: _561  and  _562
REMARK  235  A    between atoms: _562  and  _563
REMARK  236  A    between atoms: _572  and  _574
REMARK  237  A    between atoms: _574  and  _575
REMARK  238  A    between atoms: _574  and  _577
REMARK  239  A    between atoms: _577  and  _578
REMARK                            x       y       z     vdW  Elec       q    Type
REMARK                         _______ _______ _______ _____ _____    ______ ____
ROOT
ATOM      1  O   HOH     1      10.814  12.070  12.084  0.00  0.00    +0.000 OA
ENDROOT
TORSDOF 0
REMARK  Name = ../refined-set-2016/1hsh/1hsh_pocket.pdb
REMARK  239 active torsions:
REMARK  status: ('A' for Active; 'I' for Inactive)
REMARK    1  A    between atoms: _1  and  _3
REMARK    2  A    between atoms: _3  and  _4
REMARK    3  A    between atoms: _3  and  _6
REMARK    4  A    between atoms: _6  and  _7
REMARK    5  A    between atoms: _7  and  _8
REMARK    6  A    between atoms: _8  and  _9
REMARK    7  A    between atoms: _18  and  _20
REMARK    8  A    between atoms: _20  and  _21
REMARK    9  A    between atoms: _20  and  _23
REMARK   10  A    between atoms: _23  and  _24
REMARK   11  A    between atoms: _27  and  _29
REMARK   12  A    between atoms: _29  and  _30
REMARK   13  A    between atoms: _29  and  _32
REMARK   14  A    between atoms: _32  and  _33
REMARK   15  A    between atoms: _36  and  _38
REMARK   16  A    between atoms: _38  and  _39
REMARK   17  A    between atoms: _38  and  _41
REMARK   18  A    between atoms: _41  and  _42
REMARK   19  A    between atoms: _45  and  _47
REMARK   20  A    between atoms: _47  and  _48
REMARK   21  A    between atoms: _47  and  _50
REMARK   22  A    between atoms: _50  and  _51
REMARK   23  A    between atoms: _54  and  _56
REMARK   24  A    between atoms: _56  and  _57
REMARK   25  A    between atoms: _59  and  _61
REMARK   26  A    between atoms: _61  and  _62
REMARK   27  A    between atoms: _65  and  _67
REMARK   28  A    between atoms: _67  and  _68
REMARK   29  A    between atoms: _67  and  _70
REMARK   30  A    between atoms: _70  and  _71
REMARK   31  A    between atoms: _74  and  _76
REMARK   32  A    between atoms: _76  and  _77
REMARK   33  A    between atoms: _76  and  _79
REMARK   34  A    between atoms: _79  and  _80
REMARK   35  A    between atoms: _83  and  _85
REMARK   36  A    between atoms: _85  and  _86
REMARK   37  A    between atoms: _85  and  _88
REMARK   38  A    between atoms: _88  and  _89
REMARK   39  A    between atoms: _91  and  _93
REMARK   40  A    between atoms: _93  and  _94
REMARK   41  A    between atoms: _93  and  _96
REMARK   42  A    between atoms: _96  and  _97
REMARK   43  A    between atoms: _100  and  _102
REMARK   44  A    between atoms: _102  and  _103
REMARK   45  A    between atoms: _102  and  _105
REMARK   46  A    between atoms: _108  and  _110
REMARK   47  A    between atoms: _110  and  _111
REMARK   48  A    between atoms: _110  and  _113
REMARK   49  A    between atoms: _113  and  _114
REMARK   50  A    between atoms: _114  and  _115
REMARK   51  A    between atoms: _115  and  _116
REMARK   52  A    between atoms: _116  and  _117
REMARK   53  A    between atoms: _121  and  _123
REMARK   54  A    between atoms: _123  and  _124
REMARK   55  A    between atoms: _123  and  _126
REMARK   56  A    between atoms: _126  and  _127
REMARK   57  A    between atoms: _130  and  _132
REMARK   58  A    between atoms: _132  and  _133
REMARK   59  A    between atoms: _132  and  _135
REMARK   60  A    between atoms: _138  and  _140
REMARK   61  A    between atoms: _140  and  _141
REMARK   62  A    between atoms: _143  and  _145
REMARK   63  A    between atoms: _145  and  _146
REMARK   64  A    between atoms: _148  and  _150
REMARK   65  A    between atoms: _150  and  _151
REMARK   66  A    between atoms: _150  and  _153
REMARK   67  A    between atoms: _153  and  _154
REMARK   68  A    between atoms: _157  and  _159
REMARK   69  A    between atoms: _159  and  _160
REMARK   70  A    between atoms: _162  and  _164
REMARK   71  A    between atoms: _164  and  _165
REMARK   72  A    between atoms: _167  and  _169
REMARK   73  A    between atoms: _169  and  _170
REMARK   74  A    between atoms: _169  and  _172
REMARK   75  A    between atoms: _172  and  _173
REMARK   76  A    between atoms: _179  and  _181
REMARK   77  A    between atoms: _181  and  _182
REMARK   78  A    between atoms: _181  and  _184
REMARK   79  A    between atoms: _184  and  _185
REMARK   80  A    between atoms: _188  and  _190
REMARK   81  A    between atoms: _190  and  _191
REMARK   82  A    between atoms: _190  and  _193
REMARK   83  A    between atoms: _193  and  _194
REMARK   84  A    between atoms: _197  and  _199
REMARK   85  A    between atoms: _199  and  _200
REMARK   86  A    between atoms: _199  and  _202
REMARK   87  A    between atoms: _202  and  _203
REMARK   88  A    between atoms: _203  and  _204
REMARK   89  A    between atoms: _206  and  _208
REMARK   90  A    between atoms: _208  and  _209
REMARK   91  A    between atoms: _208  and  _211
REMARK   92  A    between atoms: _211  and  _212
REMARK   93  A    between atoms: _216  and  _217
REMARK   94  A    between atoms: _222  and  _224
REMARK   95  A    between atoms: _224  and  _225
REMARK   96  A    between atoms: _224  and  _227
REMARK   97  A    between atoms: _227  and  _228
REMARK   98  A    between atoms: _231  and  _233
REMARK   99  A    between atoms: _233  and  _234
REMARK  100  A    between atoms: _233  and  _236
REMARK  101  A    between atoms: _236  and  _237
REMARK  102  A    between atoms: _242  and  _244
REMARK  103  A    between atoms: _244  and  _245
REMARK  104  A    between atoms: _244  and  _247
REMARK  105  A    between atoms: _247  and  _248
REMARK  106  A    between atoms: _251  and  _253
REMARK  107  A    between atoms: _253  and  _254
REMARK  108  A    between atoms: _253  and  _256
REMARK  109  A    between atoms: _256  and  _257
REMARK  110  A    between atoms: _263  and  _265
REMARK  111  A    between atoms: _265  and  _266
REMARK  112  A    between atoms: _268  and  _270
REMARK  113  A    between atoms: _270  and  _271
REMARK  114  A    between atoms: _270  and  _273
REMARK  115  A    between atoms: _273  and  _274
REMARK  116  A    between atoms: _274  and  _275
REMARK  117  A    between atoms: _275  and  _276
REMARK  118  A    between atoms: _285  and  _287
REMARK  119  A    between atoms: _287  and  _288
REMARK  120  A    between atoms: _287  and  _290
REMARK  121  A    between atoms: _290  and  _291
REMARK  122  A    between atoms: _296  and  _298
REMARK  123  A    between atoms: _298  and  _299
REMARK  124  A    between atoms: _298  and  _301
REMARK  125  A    between atoms: _301  and  _302
REMARK  126  A    between atoms: _302  and  _303
REMARK  127  A    between atoms: _303  and  _304
REMARK  128  A    between atoms: _313  and  _315
REMARK  129  A    between atoms: _315  and  _316
REMARK  130  A    between atoms: _315  and  _318
REMARK  131  A    between atoms: _318  and  _319
REMARK  132  A    between atoms: _322  and  _324
REMARK  133  A    between atoms: _324  and  _325
REMARK  134  A    between atoms: _324  and  _327
REMARK  135  A    between atoms: _327  and  _328
REMARK  136  A    between atoms: _331  and  _333
REMARK  137  A    between atoms: _333  and  _334
REMARK  138  A    between atoms: _333  and  _336
REMARK  139  A    between atoms: _336  and  _337
REMARK  140  A    between atoms: _340  and  _342
REMARK  141  A    between atoms: _342  and  _343
REMARK  142  A    between atoms: _342  and  _345
REMARK  143  A    between atoms: _345  and  _346
REMARK  144  A    between atoms: _349  and  _351
REMARK  145  A    between atoms: _351  and  _352
REMARK  146  A    between atoms: _354  and  _356
REMARK  147  A    between atoms: _356  and  _357
REMARK  148  A    between atoms: _360  and  _362
REMARK  149  A    between atoms: _362  and  _363
REMARK  150  A    between atoms: _362  and  _365
REMARK  151  A    between atoms: _365  and  _366
REMARK  152  A    between atoms: _369  and  _371
REMARK  153  A    between atoms: _371  and  _372
REMARK  154  A    between atoms: _371  and  _374
REMARK  155  A    between atoms: _374  and  _375
REMARK  156  A    between atoms: _378  and  _380
REMARK  157  A    between atoms: _380  and  _381
REMARK  158  A    between atoms: _380  and  _383
REMARK  159  A    between atoms: _383  and  _384
REMARK  160  A    between atoms: _386  and  _388
REMARK  161  A    between atoms: _388  and  _389
REMARK  162  A    between atoms: _388  and  _391
REMARK  163  A    between atoms: _391  and  _392
REMARK  164  A    between atoms: _395  and  _397
REMARK  165  A    between atoms: _397  and  _398
REMARK  166  A    between atoms: _397  and  _400
REMARK  167  A    between atoms: _400  and  _401
REMARK  168  A    between atoms: _401  and  _402
REMARK  169  A    between atoms: _402  and  _403
REMARK  170  A    between atoms: _403  and  _404
REMARK  171  A    between atoms: _408  and  _410
REMARK  172  A    between atoms: _410  and  _411
REMARK  173  A    between atoms: _410  and  _413
REMARK  174  A    between atoms: _413  and  _414
REMARK  175  A    between atoms: _417  and  _419
REMARK  176  A    between atoms: _419  and  _420
REMARK  177  A    between atoms: _419  and  _422
REMARK  178  A    between atoms: _425  and  _427
REMARK  179  A    between atoms: _427  and  _428
REMARK  180  A    between atoms: _430  and  _432
REMARK  181  A    between atoms: _432  and  _433
REMARK  182  A    between atoms: _435  and  _437
REMARK  183  A    between atoms: _437  and  _438
REMARK  184  A    between atoms: _437  and  _440
REMARK  185  A    between atoms: _440  and  _441
REMARK  186  A    between atoms: _444  and  _446
REMARK  187  A    between atoms: _446  and  _447
REMARK  188  A    between atoms: _449  and  _451
REMARK  189  A    between atoms: _451  and  _452
REMARK  190  A    between atoms: _454  and  _456
REMARK  191  A    between atoms: _456  and  _457
REMARK  192  A    between atoms: _456  and  _459
REMARK  193  A    between atoms: _459  and  _460
REMARK  194  A    between atoms: _466  and  _468
REMARK  195  A    between atoms: _468  and  _469
REMARK  196  A    between atoms: _468  and  _471
REMARK  197  A    between atoms: _471  and  _472
REMARK  198  A    between atoms: _475  and  _477
REMARK  199  A    between atoms: _477  and  _478
REMARK  200  A    between atoms: _477  and  _480
REMARK  201  A    between atoms: _480  and  _481
REMARK  202  A    between atoms: _484  and  _486
REMARK  203  A    between atoms: _486  and  _487
REMARK  204  A    between atoms: _486  and  _489
REMARK  205  A    between atoms: _489  and  _490
REMARK  206  A    between atoms: _490  and  _491
REMARK  207  A    between atoms: _493  and  _495
REMARK  208  A    between atoms: _495  and  _496
REMARK  209  A    between atoms: _495  and  _498
REMARK  210  A    between atoms: _498  and  _499
REMARK  211  A    between atoms: _503  and  _504
REMARK  212  A    between atoms: _509  and  _511
REMARK  213  A    between atoms: _511  and  _512
REMARK  214  A    between atoms: _511  and  _514
REMARK  215  A    between atoms: _514  and  _515
REMARK  216  A    between atoms: _518  and  _520
REMARK  217  A    between atoms: _520  and  _521
REMARK  218  A    between atoms: _520  and  _523
REMARK  219  A    between atoms: _523  and  _524
REMARK  220  A    between atoms: _529  and  _531
REMARK  221  A    between atoms: _531  and  _532
REMARK  222  A    between atoms: _531  and  _534
REMARK  223  A    between atoms: _534  and  _535
REMARK  224  A    between atoms: _538  and  _540
REMARK  225  A    between atoms: _540  and  _541
REMARK  226  A    between atoms: _540  and  _543
REMARK  227  A    between atoms: _543  and  _544
REMARK  228  A    between atoms: _550  and  _552
REMARK  229  A    between atoms: _552  and  _553
REMARK  230  A    between atoms: _555  and  _557
REMARK  231  A    between atoms: _557  and  _558
REMARK  232  A    between atoms: _557  and  _560
REMARK  233  A    between atoms: _560  and  _561
REMARK  234  A    between atoms: _561  and  _562
REMARK  235  A    between atoms: _562  and  _563
REMARK  236  A    between atoms: _572  and  _574
REMARK  237  A    between atoms: _574  and  _575
REMARK  238  A    between atoms: _574  and  _577
REMARK  239  A    between atoms: _577  and  _578
REMARK                            x       y       z     vdW  Elec       q    Type
REMARK                         _______ _______ _______ _____ _____    ______ ____
ROOT
ATOM      1  O   HOH     1      16.100   7.739   4.484  0.00  0.00    +0.000 OA
ENDROOT
TORSDOF 0
REMARK  Name = ../refined-set-2016/1hsh/1hsh_pocket.pdb
REMARK  239 active torsions:
REMARK  status: ('A' for Active; 'I' for Inactive)
REMARK    1  A    between atoms: _1  and  _3
REMARK    2  A    between atoms: _3  and  _4
REMARK    3  A    between atoms: _3  and  _6
REMARK    4  A    between atoms: _6  and  _7
REMARK    5  A    between atoms: _7  and  _8
REMARK    6  A    between atoms: _8  and  _9
REMARK    7  A    between atoms: _18  and  _20
REMARK    8  A    between atoms: _20  and  _21
REMARK    9  A    between atoms: _20  and  _23
REMARK   10  A    between atoms: _23  and  _24
REMARK   11  A    between atoms: _27  and  _29
REMARK   12  A    between atoms: _29  and  _30
REMARK   13  A    between atoms: _29  and  _32
REMARK   14  A    between atoms: _32  and  _33
REMARK   15  A    between atoms: _36  and  _38
REMARK   16  A    between atoms: _38  and  _39
REMARK   17  A    between atoms: _38  and  _41
REMARK   18  A    between atoms: _41  and  _42
REMARK   19  A    between atoms: _45  and  _47
REMARK   20  A    between atoms: _47  and  _48
REMARK   21  A    between atoms: _47  and  _50
REMARK   22  A    between atoms: _50  and  _51
REMARK   23  A    between atoms: _54  and  _56
REMARK   24  A    between atoms: _56  and  _57
REMARK   25  A    between atoms: _59  and  _61
REMARK   26  A    between atoms: _61  and  _62
REMARK   27  A    between atoms: _65  and  _67
REMARK   28  A    between atoms: _67  and  _68
REMARK   29  A    between atoms: _67  and  _70
REMARK   30  A    between atoms: _70  and  _71
REMARK   31  A    between atoms: _74  and  _76
REMARK   32  A    between atoms: _76  and  _77
REMARK   33  A    between atoms: _76  and  _79
REMARK   34  A    between atoms: _79  and  _80
REMARK   35  A    between atoms: _83  and  _85
REMARK   36  A    between atoms: _85  and  _86
REMARK   37  A    between atoms: _85  and  _88
REMARK   38  A    between atoms: _88  and  _89
REMARK   39  A    between atoms: _91  and  _93
REMARK   40  A    between atoms: _93  and  _94
REMARK   41  A    between atoms: _93  and  _96
REMARK   42  A    between atoms: _96  and  _97
REMARK   43  A    between atoms: _100  and  _102
REMARK   44  A    between atoms: _102  and  _103
REMARK   45  A    between atoms: _102  and  _105
REMARK   46  A    between atoms: _108  and  _110
REMARK   47  A    between atoms: _110  and  _111
REMARK   48  A    between atoms: _110  and  _113
REMARK   49  A    between atoms: _113  and  _114
REMARK   50  A    between atoms: _114  and  _115
REMARK   51  A    between atoms: _115  and  _116
REMARK   52  A    between atoms: _116  and  _117
REMARK   53  A    between atoms: _121  and  _123
REMARK   54  A    between atoms: _123  and  _124
REMARK   55  A    between atoms: _123  and  _126
REMARK   56  A    between atoms: _126  and  _127
REMARK   57  A    between atoms: _130  and  _132
REMARK   58  A    between atoms: _132  and  _133
REMARK   59  A    between atoms: _132  and  _135
REMARK   60  A    between atoms: _138  and  _140
REMARK   61  A    between atoms: _140  and  _141
REMARK   62  A    between atoms: _143  and  _145
REMARK   63  A    between atoms: _145  and  _146
REMARK   64  A    between atoms: _148  and  _150
REMARK   65  A    between atoms: _150  and  _151
REMARK   66  A    between atoms: _150  and  _153
REMARK   67  A    between atoms: _153  and  _154
REMARK   68  A    between atoms: _157  and  _159
REMARK   69  A    between atoms: _159  and  _160
REMARK   70  A    between atoms: _162  and  _164
REMARK   71  A    between atoms: _164  and  _165
REMARK   72  A    between atoms: _167  and  _169
REMARK   73  A    between atoms: _169  and  _170
REMARK   74  A    between atoms: _169  and  _172
REMARK   75  A    between atoms: _172  and  _173
REMARK   76  A    between atoms: _179  and  _181
REMARK   77  A    between atoms: _181  and  _182
REMARK   78  A    between atoms: _181  and  _184
REMARK   79  A    between atoms: _184  and  _185
REMARK   80  A    between atoms: _188  and  _190
REMARK   81  A    between atoms: _190  and  _191
REMARK   82  A    between atoms: _190  and  _193
REMARK   83  A    between atoms: _193  and  _194
REMARK   84  A    between atoms: _197  and  _199
REMARK   85  A    between atoms: _199  and  _200
REMARK   86  A    between atoms: _199  and  _202
REMARK   87  A    between atoms: _202  and  _203
REMARK   88  A    between atoms: _203  and  _204
REMARK   89  A    between atoms: _206  and  _208
REMARK   90  A    between atoms: _208  and  _209
REMARK   91  A    between atoms: _208  and  _211
REMARK   92  A    between atoms: _211  and  _212
REMARK   93  A    between atoms: _216  and  _217
REMARK   94  A    between atoms: _222  and  _224
REMARK   95  A    between atoms: _224  and  _225
REMARK   96  A    between atoms: _224  and  _227
REMARK   97  A    between atoms: _227  and  _228
REMARK   98  A    between atoms: _231  and  _233
REMARK   99  A    between atoms: _233  and  _234
REMARK  100  A    between atoms: _233  and  _236
REMARK  101  A    between atoms: _236  and  _237
REMARK  102  A    between atoms: _242  and  _244
REMARK  103  A    between atoms: _244  and  _245
REMARK  104  A    between atoms: _244  and  _247
REMARK  105  A    between atoms: _247  and  _248
REMARK  106  A    between atoms: _251  and  _253
REMARK  107  A    between atoms: _253  and  _254
REMARK  108  A    between atoms: _253  and  _256
REMARK  109  A    between atoms: _256  and  _257
REMARK  110  A    between atoms: _263  and  _265
REMARK  111  A    between atoms: _265  and  _266
REMARK  112  A    between atoms: _268  and  _270
REMARK  113  A    between atoms: _270  and  _271
REMARK  114  A    between atoms: _270  and  _273
REMARK  115  A    between atoms: _273  and  _274
REMARK  116  A    between atoms: _274  and  _275
REMARK  117  A    between atoms: _275  and  _276
REMARK  118  A    between atoms: _285  and  _287
REMARK  119  A    between atoms: _287  and  _288
REMARK  120  A    between atoms: _287  and  _290
REMARK  121  A    between atoms: _290  and  _291
REMARK  122  A    between atoms: _296  and  _298
REMARK  123  A    between atoms: _298  and  _299
REMARK  124  A    between atoms: _298  and  _301
REMARK  125  A    between atoms: _301  and  _302
REMARK  126  A    between atoms: _302  and  _303
REMARK  127  A    between atoms: _303  and  _304
REMARK  128  A    between atoms: _313  and  _315
REMARK  129  A    between atoms: _315  and  _316
REMARK  130  A    between atoms: _315  and  _318
REMARK  131  A    between atoms: _318  and  _319
REMARK  132  A    between atoms: _322  and  _324
REMARK  133  A    between atoms: _324  and  _325
REMARK  134  A    between atoms: _324  and  _327
REMARK  135  A    between atoms: _327  and  _328
REMARK  136  A    between atoms: _331  and  _333
REMARK  137  A    between atoms: _333  and  _334
REMARK  138  A    between atoms: _333  and  _336
REMARK  139  A    between atoms: _336  and  _337
REMARK  140  A    between atoms: _340  and  _342
REMARK  141  A    between atoms: _342  and  _343
REMARK  142  A    between atoms: _342  and  _345
REMARK  143  A    between atoms: _345  and  _346
REMARK  144  A    between atoms: _349  and  _351
REMARK  145  A    between atoms: _351  and  _352
REMARK  146  A    between atoms: _354  and  _356
REMARK  147  A    between atoms: _356  and  _357
REMARK  148  A    between atoms: _360  and  _362
REMARK  149  A    between atoms: _362  and  _363
REMARK  150  A    between atoms: _362  and  _365
REMARK  151  A    between atoms: _365  and  _366
REMARK  152  A    between atoms: _369  and  _371
REMARK  153  A    between atoms: _371  and  _372
REMARK  154  A    between atoms: _371  and  _374
REMARK  155  A    between atoms: _374  and  _375
REMARK  156  A    between atoms: _378  and  _380
REMARK  157  A    between atoms: _380  and  _381
REMARK  158  A    between atoms: _380  and  _383
REMARK  159  A    between atoms: _383  and  _384
REMARK  160  A    between atoms: _386  and  _388
REMARK  161  A    between atoms: _388  and  _389
REMARK  162  A    between atoms: _388  and  _391
REMARK  163  A    between atoms: _391  and  _392
REMARK  164  A    between atoms: _395  and  _397
REMARK  165  A    between atoms: _397  and  _398
REMARK  166  A    between atoms: _397  and  _400
REMARK  167  A    between atoms: _400  and  _401
REMARK  168  A    between atoms: _401  and  _402
REMARK  169  A    between atoms: _402  and  _403
REMARK  170  A    between atoms: _403  and  _404
REMARK  171  A    between atoms: _408  and  _410
REMARK  172  A    between atoms: _410  and  _411
REMARK  173  A    between atoms: _410  and  _413
REMARK  174  A    between atoms: _413  and  _414
REMARK  175  A    between atoms: _417  and  _419
REMARK  176  A    between atoms: _419  and  _420
REMARK  177  A    between atoms: _419  and  _422
REMARK  178  A    between atoms: _425  and  _427
REMARK  179  A    between atoms: _427  and  _428
REMARK  180  A    between atoms: _430  and  _432
REMARK  181  A    between atoms: _432  and  _433
REMARK  182  A    between atoms: _435  and  _437
REMARK  183  A    between atoms: _437  and  _438
REMARK  184  A    between atoms: _437  and  _440
REMARK  185  A    between atoms: _440  and  _441
REMARK  186  A    between atoms: _444  and  _446
REMARK  187  A    between atoms: _446  and  _447
REMARK  188  A    between atoms: _449  and  _451
REMARK  189  A    between atoms: _451  and  _452
REMARK  190  A    between atoms: _454  and  _456
REMARK  191  A    between atoms: _456  and  _457
REMARK  192  A    between atoms: _456  and  _459
REMARK  193  A    between atoms: _459  and  _460
REMARK  194  A    between atoms: _466  and  _468
REMARK  195  A    between atoms: _468  and  _469
REMARK  196  A    between atoms: _468  and  _471
REMARK  197  A    between atoms: _471  and  _472
REMARK  198  A    between atoms: _475  and  _477
REMARK  199  A    between atoms: _477  and  _478
REMARK  200  A    between atoms: _477  and  _480
REMARK  201  A    between atoms: _480  and  _481
REMARK  202  A    between atoms: _484  and  _486
REMARK  203  A    between atoms: _486  and  _487
REMARK  204  A    between atoms: _486  and  _489
REMARK  205  A    between atoms: _489  and  _490
REMARK  206  A    between atoms: _490  and  _491
REMARK  207  A    between atoms: _493  and  _495
REMARK  208  A    between atoms: _495  and  _496
REMARK  209  A    between atoms: _495  and  _498
REMARK  210  A    between atoms: _498  and  _499
REMARK  211  A    between atoms: _503  and  _504
REMARK  212  A    between atoms: _509  and  _511
REMARK  213  A    between atoms: _511  and  _512
REMARK  214  A    between atoms: _511  and  _514
REMARK  215  A    between atoms: _514  and  _515
REMARK  216  A    between atoms: _518  and  _520
REMARK  217  A    between atoms: _520  and  _521
REMARK  218  A    between atoms: _520  and  _523
REMARK  219  A    between atoms: _523  and  _524
REMARK  220  A    between atoms: _529  and  _531
REMARK  221  A    between atoms: _531  and  _532
REMARK  222  A    between atoms: _531  and  _534
REMARK  223  A    between atoms: _534  and  _535
REMARK  224  A    between atoms: _538  and  _540
REMARK  225  A    between atoms: _540  and  _541
REMARK  226  A    between atoms: _540  and  _543
REMARK  227  A    between atoms: _543  and  _544
REMARK  228  A    between atoms: _550  and  _552
REMARK  229  A    between atoms: _552  and  _553
REMARK  230  A    between atoms: _555  and  _557
REMARK  231  A    between atoms: _557  and  _558
REMARK  232  A    between atoms: _557  and  _560
REMARK  233  A    between atoms: _560  and  _561
REMARK  234  A    between atoms: _561  and  _562
REMARK  235  A    between atoms: _562  and  _563
REMARK  236  A    between atoms: _572  and  _574
REMARK  237  A    between atoms: _574  and  _575
REMARK  238  A    between atoms: _574  and  _577
REMARK  239  A    between atoms: _577  and  _578
REMARK                            x       y       z     vdW  Elec       q    Type
REMARK                         _______ _______ _______ _____ _____    ______ ____
ROOT
ATOM      1  O   HOH     1      24.966   0.277   7.718  0.00  0.00    +0.000 OA
ENDROOT
TORSDOF 0
REMARK  Name = ../refined-set-2016/1hsh/1hsh_pocket.pdb
REMARK  239 active torsions:
REMARK  status: ('A' for Active; 'I' for Inactive)
REMARK    1  A    between atoms: _1  and  _3
REMARK    2  A    between atoms: _3  and  _4
REMARK    3  A    between atoms: _3  and  _6
REMARK    4  A    between atoms: _6  and  _7
REMARK    5  A    between atoms: _7  and  _8
REMARK    6  A    between atoms: _8  and  _9
REMARK    7  A    between atoms: _18  and  _20
REMARK    8  A    between atoms: _20  and  _21
REMARK    9  A    between atoms: _20  and  _23
REMARK   10  A    between atoms: _23  and  _24
REMARK   11  A    between atoms: _27  and  _29
REMARK   12  A    between atoms: _29  and  _30
REMARK   13  A    between atoms: _29  and  _32
REMARK   14  A    between atoms: _32  and  _33
REMARK   15  A    between atoms: _36  and  _38
REMARK   16  A    between atoms: _38  and  _39
REMARK   17  A    between atoms: _38  and  _41
REMARK   18  A    between atoms: _41  and  _42
REMARK   19  A    between atoms: _45  and  _47
REMARK   20  A    between atoms: _47  and  _48
REMARK   21  A    between atoms: _47  and  _50
REMARK   22  A    between atoms: _50  and  _51
REMARK   23  A    between atoms: _54  and  _56
REMARK   24  A    between atoms: _56  and  _57
REMARK   25  A    between atoms: _59  and  _61
REMARK   26  A    between atoms: _61  and  _62
REMARK   27  A    between atoms: _65  and  _67
REMARK   28  A    between atoms: _67  and  _68
REMARK   29  A    between atoms: _67  and  _70
REMARK   30  A    between atoms: _70  and  _71
REMARK   31  A    between atoms: _74  and  _76
REMARK   32  A    between atoms: _76  and  _77
REMARK   33  A    between atoms: _76  and  _79
REMARK   34  A    between atoms: _79  and  _80
REMARK   35  A    between atoms: _83  and  _85
REMARK   36  A    between atoms: _85  and  _86
REMARK   37  A    between atoms: _85  and  _88
REMARK   38  A    between atoms: _88  and  _89
REMARK   39  A    between atoms: _91  and  _93
REMARK   40  A    between atoms: _93  and  _94
REMARK   41  A    between atoms: _93  and  _96
REMARK   42  A    between atoms: _96  and  _97
REMARK   43  A    between atoms: _100  and  _102
REMARK   44  A    between atoms: _102  and  _103
REMARK   45  A    between atoms: _102  and  _105
REMARK   46  A    between atoms: _108  and  _110
REMARK   47  A    between atoms: _110  and  _111
REMARK   48  A    between atoms: _110  and  _113
REMARK   49  A    between atoms: _113  and  _114
REMARK   50  A    between atoms: _114  and  _115
REMARK   51  A    between atoms: _115  and  _116
REMARK   52  A    between atoms: _116  and  _117
REMARK   53  A    between atoms: _121  and  _123
REMARK   54  A    between atoms: _123  and  _124
REMARK   55  A    between atoms: _123  and  _126
REMARK   56  A    between atoms: _126  and  _127
REMARK   57  A    between atoms: _130  and  _132
REMARK   58  A    between atoms: _132  and  _133
REMARK   59  A    between atoms: _132  and  _135
REMARK   60  A    between atoms: _138  and  _140
REMARK   61  A    between atoms: _140  and  _141
REMARK   62  A    between atoms: _143  and  _145
REMARK   63  A    between atoms: _145  and  _146
REMARK   64  A    between atoms: _148  and  _150
REMARK   65  A    between atoms: _150  and  _151
REMARK   66  A    between atoms: _150  and  _153
REMARK   67  A    between atoms: _153  and  _154
REMARK   68  A    between atoms: _157  and  _159
REMARK   69  A    between atoms: _159  and  _160
REMARK   70  A    between atoms: _162  and  _164
REMARK   71  A    between atoms: _164  and  _165
REMARK   72  A    between atoms: _167  and  _169
REMARK   73  A    between atoms: _169  and  _170
REMARK   74  A    between atoms: _169  and  _172
REMARK   75  A    between atoms: _172  and  _173
REMARK   76  A    between atoms: _179  and  _181
REMARK   77  A    between atoms: _181  and  _182
REMARK   78  A    between atoms: _181  and  _184
REMARK   79  A    between atoms: _184  and  _185
REMARK   80  A    between atoms: _188  and  _190
REMARK   81  A    between atoms: _190  and  _191
REMARK   82  A    between atoms: _190  and  _193
REMARK   83  A    between atoms: _193  and  _194
REMARK   84  A    between atoms: _197  and  _199
REMARK   85  A    between atoms: _199  and  _200
REMARK   86  A    between atoms: _199  and  _202
REMARK   87  A    between atoms: _202  and  _203
REMARK   88  A    between atoms: _203  and  _204
REMARK   89  A    between atoms: _206  and  _208
REMARK   90  A    between atoms: _208  and  _209
REMARK   91  A    between atoms: _208  and  _211
REMARK   92  A    between atoms: _211  and  _212
REMARK   93  A    between atoms: _216  and  _217
REMARK   94  A    between atoms: _222  and  _224
REMARK   95  A    between atoms: _224  and  _225
REMARK   96  A    between atoms: _224  and  _227
REMARK   97  A    between atoms: _227  and  _228
REMARK   98  A    between atoms: _231  and  _233
REMARK   99  A    between atoms: _233  and  _234
REMARK  100  A    between atoms: _233  and  _236
REMARK  101  A    between atoms: _236  and  _237
REMARK  102  A    between atoms: _242  and  _244
REMARK  103  A    between atoms: _244  and  _245
REMARK  104  A    between atoms: _244  and  _247
REMARK  105  A    between atoms: _247  and  _248
REMARK  106  A    between atoms: _251  and  _253
REMARK  107  A    between atoms: _253  and  _254
REMARK  108  A    between atoms: _253  and  _256
REMARK  109  A    between atoms: _256  and  _257
REMARK  110  A    between atoms: _263  and  _265
REMARK  111  A    between atoms: _265  and  _266
REMARK  112  A    between atoms: _268  and  _270
REMARK  113  A    between atoms: _270  and  _271
REMARK  114  A    between atoms: _270  and  _273
REMARK  115  A    between atoms: _273  and  _274
REMARK  116  A    between atoms: _274  and  _275
REMARK  117  A    between atoms: _275  and  _276
REMARK  118  A    between atoms: _285  and  _287
REMARK  119  A    between atoms: _287  and  _288
REMARK  120  A    between atoms: _287  and  _290
REMARK  121  A    between atoms: _290  and  _291
REMARK  122  A    between atoms: _296  and  _298
REMARK  123  A    between atoms: _298  and  _299
REMARK  124  A    between atoms: _298  and  _301
REMARK  125  A    between atoms: _301  and  _302
REMARK  126  A    between atoms: _302  and  _303
REMARK  127  A    between atoms: _303  and  _304
REMARK  128  A    between atoms: _313  and  _315
REMARK  129  A    between atoms: _315  and  _316
REMARK  130  A    between atoms: _315  and  _318
REMARK  131  A    between atoms: _318  and  _319
REMARK  132  A    between atoms: _322  and  _324
REMARK  133  A    between atoms: _324  and  _325
REMARK  134  A    between atoms: _324  and  _327
REMARK  135  A    between atoms: _327  and  _328
REMARK  136  A    between atoms: _331  and  _333
REMARK  137  A    between atoms: _333  and  _334
REMARK  138  A    between atoms: _333  and  _336
REMARK  139  A    between atoms: _336  and  _337
REMARK  140  A    between atoms: _340  and  _342
REMARK  141  A    between atoms: _342  and  _343
REMARK  142  A    between atoms: _342  and  _345
REMARK  143  A    between atoms: _345  and  _346
REMARK  144  A    between atoms: _349  and  _351
REMARK  145  A    between atoms: _351  and  _352
REMARK  146  A    between atoms: _354  and  _356
REMARK  147  A    between atoms: _356  and  _357
REMARK  148  A    between atoms: _360  and  _362
REMARK  149  A    between atoms: _362  and  _363
REMARK  150  A    between atoms: _362  and  _365
REMARK  151  A    between atoms: _365  and  _366
REMARK  152  A    between atoms: _369  and  _371
REMARK  153  A    between atoms: _371  and  _372
REMARK  154  A    between atoms: _371  and  _374
REMARK  155  A    between atoms: _374  and  _375
REMARK  156  A    between atoms: _378  and  _380
REMARK  157  A    between atoms: _380  and  _381
REMARK  158  A    between atoms: _380  and  _383
REMARK  159  A    between atoms: _383  and  _384
REMARK  160  A    between atoms: _386  and  _388
REMARK  161  A    between atoms: _388  and  _389
REMARK  162  A    between atoms: _388  and  _391
REMARK  163  A    between atoms: _391  and  _392
REMARK  164  A    between atoms: _395  and  _397
REMARK  165  A    between atoms: _397  and  _398
REMARK  166  A    between atoms: _397  and  _400
REMARK  167  A    between atoms: _400  and  _401
REMARK  168  A    between atoms: _401  and  _402
REMARK  169  A    between atoms: _402  and  _403
REMARK  170  A    between atoms: _403  and  _404
REMARK  171  A    between atoms: _408  and  _410
REMARK  172  A    between atoms: _410  and  _411
REMARK  173  A    between atoms: _410  and  _413
REMARK  174  A    between atoms: _413  and  _414
REMARK  175  A    between atoms: _417  and  _419
REMARK  176  A    between atoms: _419  and  _420
REMARK  177  A    between atoms: _419  and  _422
REMARK  178  A    between atoms: _425  and  _427
REMARK  179  A    between atoms: _427  and  _428
REMARK  180  A    between atoms: _430  and  _432
REMARK  181  A    between atoms: _432  and  _433
REMARK  182  A    between atoms: _435  and  _437
REMARK  183  A    between atoms: _437  and  _438
REMARK  184  A    between atoms: _437  and  _440
REMARK  185  A    between atoms: _440  and  _441
REMARK  186  A    between atoms: _444  and  _446
REMARK  187  A    between atoms: _446  and  _447
REMARK  188  A    between atoms: _449  and  _451
REMARK  189  A    between atoms: _451  and  _452
REMARK  190  A    between atoms: _454  and  _456
REMARK  191  A    between atoms: _456  and  _457
REMARK  192  A    between atoms: _456  and  _459
REMARK  193  A    between atoms: _459  and  _460
REMARK  194  A    between atoms: _466  and  _468
REMARK  195  A    between atoms: _468  and  _469
REMARK  196  A    between atoms: _468  and  _471
REMARK  197  A    between atoms: _471  and  _472
REMARK  198  A    between atoms: _475  and  _477
REMARK  199  A    between atoms: _477  and  _478
REMARK  200  A    between atoms: _477  and  _480
REMARK  201  A    between atoms: _480  and  _481
REMARK  202  A    between atoms: _484  and  _486
REMARK  203  A    between atoms: _486  and  _487
REMARK  204  A    between atoms: _486  and  _489
REMARK  205  A    between atoms: _489  and  _490
REMARK  206  A    between atoms: _490  and  _491
REMARK  207  A    between atoms: _493  and  _495
REMARK  208  A    between atoms: _495  and  _496
REMARK  209  A    between atoms: _495  and  _498
REMARK  210  A    between atoms: _498  and  _499
REMARK  211  A    between atoms: _503  and  _504
REMARK  212  A    between atoms: _509  and  _511
REMARK  213  A    between atoms: _511  and  _512
REMARK  214  A    between atoms: _511  and  _514
REMARK  215  A    between atoms: _514  and  _515
REMARK  216  A    between atoms: _518  and  _520
REMARK  217  A    between atoms: _520  and  _521
REMARK  218  A    between atoms: _520  and  _523
REMARK  219  A    between atoms: _523  and  _524
REMARK  220  A    between atoms: _529  and  _531
REMARK  221  A    between atoms: _531  and  _532
REMARK  222  A    between atoms: _531  and  _534
REMARK  223  A    between atoms: _534  and  _535
REMARK  224  A    between atoms: _538  and  _540
REMARK  225  A    between atoms: _540  and  _541
REMARK  226  A    between atoms: _540  and  _543
REMARK  227  A    between atoms: _543  and  _544
REMARK  228  A    between atoms: _550  and  _552
REMARK  229  A    between atoms: _552  and  _553
REMARK  230  A    between atoms: _555  and  _557
REMARK  231  A    between atoms: _557  and  _558
REMARK  232  A    between atoms: _557  and  _560
REMARK  233  A    between atoms: _560  and  _561
REMARK  234  A    between atoms: _561  and  _562
REMARK  235  A    between atoms: _562  and  _563
REMARK  236  A    between atoms: _572  and  _574
REMARK  237  A    between atoms: _574  and  _575
REMARK  238  A    between atoms: _574  and  _577
REMARK  239  A    between atoms: _577  and  _578
REMARK                            x       y       z     vdW  Elec       q    Type
REMARK                         _______ _______ _______ _____ _____    ______ ____
ROOT
ATOM      1  O   HOH     1      12.162 -12.343   2.574  0.00  0.00    +0.000 OA
ENDROOT
TORSDOF 0
REMARK  Name = ../refined-set-2016/1hsh/1hsh_pocket.pdb
REMARK  239 active torsions:
REMARK  status: ('A' for Active; 'I' for Inactive)
REMARK    1  A    between atoms: _1  and  _3
REMARK    2  A    between atoms: _3  and  _4
REMARK    3  A    between atoms: _3  and  _6
REMARK    4  A    between atoms: _6  and  _7
REMARK    5  A    between atoms: _7  and  _8
REMARK    6  A    between atoms: _8  and  _9
REMARK    7  A    between atoms: _18  and  _20
REMARK    8  A    between atoms: _20  and  _21
REMARK    9  A    between atoms: _20  and  _23
REMARK   10  A    between atoms: _23  and  _24
REMARK   11  A    between atoms: _27  and  _29
REMARK   12  A    between atoms: _29  and  _30
REMARK   13  A    between atoms: _29  and  _32
REMARK   14  A    between atoms: _32  and  _33
REMARK   15  A    between atoms: _36  and  _38
REMARK   16  A    between atoms: _38  and  _39
REMARK   17  A    between atoms: _38  and  _41
REMARK   18  A    between atoms: _41  and  _42
REMARK   19  A    between atoms: _45  and  _47
REMARK   20  A    between atoms: _47  and  _48
REMARK   21  A    between atoms: _47  and  _50
REMARK   22  A    between atoms: _50  and  _51
REMARK   23  A    between atoms: _54  and  _56
REMARK   24  A    between atoms: _56  and  _57
REMARK   25  A    between atoms: _59  and  _61
REMARK   26  A    between atoms: _61  and  _62
REMARK   27  A    between atoms: _65  and  _67
REMARK   28  A    between atoms: _67  and  _68
REMARK   29  A    between atoms: _67  and  _70
REMARK   30  A    between atoms: _70  and  _71
REMARK   31  A    between atoms: _74  and  _76
REMARK   32  A    between atoms: _76  and  _77
REMARK   33  A    between atoms: _76  and  _79
REMARK   34  A    between atoms: _79  and  _80
REMARK   35  A    between atoms: _83  and  _85
REMARK   36  A    between atoms: _85  and  _86
REMARK   37  A    between atoms: _85  and  _88
REMARK   38  A    between atoms: _88  and  _89
REMARK   39  A    between atoms: _91  and  _93
REMARK   40  A    between atoms: _93  and  _94
REMARK   41  A    between atoms: _93  and  _96
REMARK   42  A    between atoms: _96  and  _97
REMARK   43  A    between atoms: _100  and  _102
REMARK   44  A    between atoms: _102  and  _103
REMARK   45  A    between atoms: _102  and  _105
REMARK   46  A    between atoms: _108  and  _110
REMARK   47  A    between atoms: _110  and  _111
REMARK   48  A    between atoms: _110  and  _113
REMARK   49  A    between atoms: _113  and  _114
REMARK   50  A    between atoms: _114  and  _115
REMARK   51  A    between atoms: _115  and  _116
REMARK   52  A    between atoms: _116  and  _117
REMARK   53  A    between atoms: _121  and  _123
REMARK   54  A    between atoms: _123  and  _124
REMARK   55  A    between atoms: _123  and  _126
REMARK   56  A    between atoms: _126  and  _127
REMARK   57  A    between atoms: _130  and  _132
REMARK   58  A    between atoms: _132  and  _133
REMARK   59  A    between atoms: _132  and  _135
REMARK   60  A    between atoms: _138  and  _140
REMARK   61  A    between atoms: _140  and  _141
REMARK   62  A    between atoms: _143  and  _145
REMARK   63  A    between atoms: _145  and  _146
REMARK   64  A    between atoms: _148  and  _150
REMARK   65  A    between atoms: _150  and  _151
REMARK   66  A    between atoms: _150  and  _153
REMARK   67  A    between atoms: _153  and  _154
REMARK   68  A    between atoms: _157  and  _159
REMARK   69  A    between atoms: _159  and  _160
REMARK   70  A    between atoms: _162  and  _164
REMARK   71  A    between atoms: _164  and  _165
REMARK   72  A    between atoms: _167  and  _169
REMARK   73  A    between atoms: _169  and  _170
REMARK   74  A    between atoms: _169  and  _172
REMARK   75  A    between atoms: _172  and  _173
REMARK   76  A    between atoms: _179  and  _181
REMARK   77  A    between atoms: _181  and  _182
REMARK   78  A    between atoms: _181  and  _184
REMARK   79  A    between atoms: _184  and  _185
REMARK   80  A    between atoms: _188  and  _190
REMARK   81  A    between atoms: _190  and  _191
REMARK   82  A    between atoms: _190  and  _193
REMARK   83  A    between atoms: _193  and  _194
REMARK   84  A    between atoms: _197  and  _199
REMARK   85  A    between atoms: _199  and  _200
REMARK   86  A    between atoms: _199  and  _202
REMARK   87  A    between atoms: _202  and  _203
REMARK   88  A    between atoms: _203  and  _204
REMARK   89  A    between atoms: _206  and  _208
REMARK   90  A    between atoms: _208  and  _209
REMARK   91  A    between atoms: _208  and  _211
REMARK   92  A    between atoms: _211  and  _212
REMARK   93  A    between atoms: _216  and  _217
REMARK   94  A    between atoms: _222  and  _224
REMARK   95  A    between atoms: _224  and  _225
REMARK   96  A    between atoms: _224  and  _227
REMARK   97  A    between atoms: _227  and  _228
REMARK   98  A    between atoms: _231  and  _233
REMARK   99  A    between atoms: _233  and  _234
REMARK  100  A    between atoms: _233  and  _236
REMARK  101  A    between atoms: _236  and  _237
REMARK  102  A    between atoms: _242  and  _244
REMARK  103  A    between atoms: _244  and  _245
REMARK  104  A    between atoms: _244  and  _247
REMARK  105  A    between atoms: _247  and  _248
REMARK  106  A    between atoms: _251  and  _253
REMARK  107  A    between atoms: _253  and  _254
REMARK  108  A    between atoms: _253  and  _256
REMARK  109  A    between atoms: _256  and  _257
REMARK  110  A    between atoms: _263  and  _265
REMARK  111  A    between atoms: _265  and  _266
REMARK  112  A    between atoms: _268  and  _270
REMARK  113  A    between atoms: _270  and  _271
REMARK  114  A    between atoms: _270  and  _273
REMARK  115  A    between atoms: _273  and  _274
REMARK  116  A    between atoms: _274  and  _275
REMARK  117  A    between atoms: _275  and  _276
REMARK  118  A    between atoms: _285  and  _287
REMARK  119  A    between atoms: _287  and  _288
REMARK  120  A    between atoms: _287  and  _290
REMARK  121  A    between atoms: _290  and  _291
REMARK  122  A    between atoms: _296  and  _298
REMARK  123  A    between atoms: _298  and  _299
REMARK  124  A    between atoms: _298  and  _301
REMARK  125  A    between atoms: _301  and  _302
REMARK  126  A    between atoms: _302  and  _303
REMARK  127  A    between atoms: _303  and  _304
REMARK  128  A    between atoms: _313  and  _315
REMARK  129  A    between atoms: _315  and  _316
REMARK  130  A    between atoms: _315  and  _318
REMARK  131  A    between atoms: _318  and  _319
REMARK  132  A    between atoms: _322  and  _324
REMARK  133  A    between atoms: _324  and  _325
REMARK  134  A    between atoms: _324  and  _327
REMARK  135  A    between atoms: _327  and  _328
REMARK  136  A    between atoms: _331  and  _333
REMARK  137  A    between atoms: _333  and  _334
REMARK  138  A    between atoms: _333  and  _336
REMARK  139  A    between atoms: _336  and  _337
REMARK  140  A    between atoms: _340  and  _342
REMARK  141  A    between atoms: _342  and  _343
REMARK  142  A    between atoms: _342  and  _345
REMARK  143  A    between atoms: _345  and  _346
REMARK  144  A    between atoms: _349  and  _351
REMARK  145  A    between atoms: _351  and  _352
REMARK  146  A    between atoms: _354  and  _356
REMARK  147  A    between atoms: _356  and  _357
REMARK  148  A    between atoms: _360  and  _362
REMARK  149  A    between atoms: _362  and  _363
REMARK  150  A    between atoms: _362  and  _365
REMARK  151  A    between atoms: _365  and  _366
REMARK  152  A    between atoms: _369  and  _371
REMARK  153  A    between atoms: _371  and  _372
REMARK  154  A    between atoms: _371  and  _374
REMARK  155  A    between atoms: _374  and  _375
REMARK  156  A    between atoms: _378  and  _380
REMARK  157  A    between atoms: _380  and  _381
REMARK  158  A    between atoms: _380  and  _383
REMARK  159  A    between atoms: _383  and  _384
REMARK  160  A    between atoms: _386  and  _388
REMARK  161  A    between atoms: _388  and  _389
REMARK  162  A    between atoms: _388  and  _391
REMARK  163  A    between atoms: _391  and  _392
REMARK  164  A    between atoms: _395  and  _397
REMARK  165  A    between atoms: _397  and  _398
REMARK  166  A    between atoms: _397  and  _400
REMARK  167  A    between atoms: _400  and  _401
REMARK  168  A    between atoms: _401  and  _402
REMARK  169  A    between atoms: _402  and  _403
REMARK  170  A    between atoms: _403  and  _404
REMARK  171  A    between atoms: _408  and  _410
REMARK  172  A    between atoms: _410  and  _411
REMARK  173  A    between atoms: _410  and  _413
REMARK  174  A    between atoms: _413  and  _414
REMARK  175  A    between atoms: _417  and  _419
REMARK  176  A    between atoms: _419  and  _420
REMARK  177  A    between atoms: _419  and  _422
REMARK  178  A    between atoms: _425  and  _427
REMARK  179  A    between atoms: _427  and  _428
REMARK  180  A    between atoms: _430  and  _432
REMARK  181  A    between atoms: _432  and  _433
REMARK  182  A    between atoms: _435  and  _437
REMARK  183  A    between atoms: _437  and  _438
REMARK  184  A    between atoms: _437  and  _440
REMARK  185  A    between atoms: _440  and  _441
REMARK  186  A    between atoms: _444  and  _446
REMARK  187  A    between atoms: _446  and  _447
REMARK  188  A    between atoms: _449  and  _451
REMARK  189  A    between atoms: _451  and  _452
REMARK  190  A    between atoms: _454  and  _456
REMARK  191  A    between atoms: _456  and  _457
REMARK  192  A    between atoms: _456  and  _459
REMARK  193  A    between atoms: _459  and  _460
REMARK  194  A    between atoms: _466  and  _468
REMARK  195  A    between atoms: _468  and  _469
REMARK  196  A    between atoms: _468  and  _471
REMARK  197  A    between atoms: _471  and  _472
REMARK  198  A    between atoms: _475  and  _477
REMARK  199  A    between atoms: _477  and  _478
REMARK  200  A    between atoms: _477  and  _480
REMARK  201  A    between atoms: _480  and  _481
REMARK  202  A    between atoms: _484  and  _486
REMARK  203  A    between atoms: _486  and  _487
REMARK  204  A    between atoms: _486  and  _489
REMARK  205  A    between atoms: _489  and  _490
REMARK  206  A    between atoms: _490  and  _491
REMARK  207  A    between atoms: _493  and  _495
REMARK  208  A    between atoms: _495  and  _496
REMARK  209  A    between atoms: _495  and  _498
REMARK  210  A    between atoms: _498  and  _499
REMARK  211  A    between atoms: _503  and  _504
REMARK  212  A    between atoms: _509  and  _511
REMARK  213  A    between atoms: _511  and  _512
REMARK  214  A    between atoms: _511  and  _514
REMARK  215  A    between atoms: _514  and  _515
REMARK  216  A    between atoms: _518  and  _520
REMARK  217  A    between atoms: _520  and  _521
REMARK  218  A    between atoms: _520  and  _523
REMARK  219  A    between atoms: _523  and  _524
REMARK  220  A    between atoms: _529  and  _531
REMARK  221  A    between atoms: _531  and  _532
REMARK  222  A    between atoms: _531  and  _534
REMARK  223  A    between atoms: _534  and  _535
REMARK  224  A    between atoms: _538  and  _540
REMARK  225  A    between atoms: _540  and  _541
REMARK  226  A    between atoms: _540  and  _543
REMARK  227  A    between atoms: _543  and  _544
REMARK  228  A    between atoms: _550  and  _552
REMARK  229  A    between atoms: _552  and  _553
REMARK  230  A    between atoms: _555  and  _557
REMARK  231  A    between atoms: _557  and  _558
REMARK  232  A    between atoms: _557  and  _560
REMARK  233  A    between atoms: _560  and  _561
REMARK  234  A    between atoms: _561  and  _562
REMARK  235  A    between atoms: _562  and  _563
REMARK  236  A    between atoms: _572  and  _574
REMARK  237  A    between atoms: _574  and  _575
REMARK  238  A    between atoms: _574  and  _577
REMARK  239  A    between atoms: _577  and  _578
REMARK                            x       y       z     vdW  Elec       q    Type
REMARK                         _______ _______ _______ _____ _____    ______ ____
ROOT
ATOM      1  O   HOH     1      13.279  -7.350  12.616  0.00  0.00    +0.000 OA
ENDROOT
TORSDOF 0
REMARK  Name = ../refined-set-2016/1hsh/1hsh_pocket.pdb
REMARK  239 active torsions:
REMARK  status: ('A' for Active; 'I' for Inactive)
REMARK    1  A    between atoms: _1  and  _3
REMARK    2  A    between atoms: _3  and  _4
REMARK    3  A    between atoms: _3  and  _6
REMARK    4  A    between atoms: _6  and  _7
REMARK    5  A    between atoms: _7  and  _8
REMARK    6  A    between atoms: _8  and  _9
REMARK    7  A    between atoms: _18  and  _20
REMARK    8  A    between atoms: _20  and  _21
REMARK    9  A    between atoms: _20  and  _23
REMARK   10  A    between atoms: _23  and  _24
REMARK   11  A    between atoms: _27  and  _29
REMARK   12  A    between atoms: _29  and  _30
REMARK   13  A    between atoms: _29  and  _32
REMARK   14  A    between atoms: _32  and  _33
REMARK   15  A    between atoms: _36  and  _38
REMARK   16  A    between atoms: _38  and  _39
REMARK   17  A    between atoms: _38  and  _41
REMARK   18  A    between atoms: _41  and  _42
REMARK   19  A    between atoms: _45  and  _47
REMARK   20  A    between atoms: _47  and  _48
REMARK   21  A    between atoms: _47  and  _50
REMARK   22  A    between atoms: _50  and  _51
REMARK   23  A    between atoms: _54  and  _56
REMARK   24  A    between atoms: _56  and  _57
REMARK   25  A    between atoms: _59  and  _61
REMARK   26  A    between atoms: _61  and  _62
REMARK   27  A    between atoms: _65  and  _67
REMARK   28  A    between atoms: _67  and  _68
REMARK   29  A    between atoms: _67  and  _70
REMARK   30  A    between atoms: _70  and  _71
REMARK   31  A    between atoms: _74  and  _76
REMARK   32  A    between atoms: _76  and  _77
REMARK   33  A    between atoms: _76  and  _79
REMARK   34  A    between atoms: _79  and  _80
REMARK   35  A    between atoms: _83  and  _85
REMARK   36  A    between atoms: _85  and  _86
REMARK   37  A    between atoms: _85  and  _88
REMARK   38  A    between atoms: _88  and  _89
REMARK   39  A    between atoms: _91  and  _93
REMARK   40  A    between atoms: _93  and  _94
REMARK   41  A    between atoms: _93  and  _96
REMARK   42  A    between atoms: _96  and  _97
REMARK   43  A    between atoms: _100  and  _102
REMARK   44  A    between atoms: _102  and  _103
REMARK   45  A    between atoms: _102  and  _105
REMARK   46  A    between atoms: _108  and  _110
REMARK   47  A    between atoms: _110  and  _111
REMARK   48  A    between atoms: _110  and  _113
REMARK   49  A    between atoms: _113  and  _114
REMARK   50  A    between atoms: _114  and  _115
REMARK   51  A    between atoms: _115  and  _116
REMARK   52  A    between atoms: _116  and  _117
REMARK   53  A    between atoms: _121  and  _123
REMARK   54  A    between atoms: _123  and  _124
REMARK   55  A    between atoms: _123  and  _126
REMARK   56  A    between atoms: _126  and  _127
REMARK   57  A    between atoms: _130  and  _132
REMARK   58  A    between atoms: _132  and  _133
REMARK   59  A    between atoms: _132  and  _135
REMARK   60  A    between atoms: _138  and  _140
REMARK   61  A    between atoms: _140  and  _141
REMARK   62  A    between atoms: _143  and  _145
REMARK   63  A    between atoms: _145  and  _146
REMARK   64  A    between atoms: _148  and  _150
REMARK   65  A    between atoms: _150  and  _151
REMARK   66  A    between atoms: _150  and  _153
REMARK   67  A    between atoms: _153  and  _154
REMARK   68  A    between atoms: _157  and  _159
REMARK   69  A    between atoms: _159  and  _160
REMARK   70  A    between atoms: _162  and  _164
REMARK   71  A    between atoms: _164  and  _165
REMARK   72  A    between atoms: _167  and  _169
REMARK   73  A    between atoms: _169  and  _170
REMARK   74  A    between atoms: _169  and  _172
REMARK   75  A    between atoms: _172  and  _173
REMARK   76  A    between atoms: _179  and  _181
REMARK   77  A    between atoms: _181  and  _182
REMARK   78  A    between atoms: _181  and  _184
REMARK   79  A    between atoms: _184  and  _185
REMARK   80  A    between atoms: _188  and  _190
REMARK   81  A    between atoms: _190  and  _191
REMARK   82  A    between atoms: _190  and  _193
REMARK   83  A    between atoms: _193  and  _194
REMARK   84  A    between atoms: _197  and  _199
REMARK   85  A    between atoms: _199  and  _200
REMARK   86  A    between atoms: _199  and  _202
REMARK   87  A    between atoms: _202  and  _203
REMARK   88  A    between atoms: _203  and  _204
REMARK   89  A    between atoms: _206  and  _208
REMARK   90  A    between atoms: _208  and  _209
REMARK   91  A    between atoms: _208  and  _211
REMARK   92  A    between atoms: _211  and  _212
REMARK   93  A    between atoms: _216  and  _217
REMARK   94  A    between atoms: _222  and  _224
REMARK   95  A    between atoms: _224  and  _225
REMARK   96  A    between atoms: _224  and  _227
REMARK   97  A    between atoms: _227  and  _228
REMARK   98  A    between atoms: _231  and  _233
REMARK   99  A    between atoms: _233  and  _234
REMARK  100  A    between atoms: _233  and  _236
REMARK  101  A    between atoms: _236  and  _237
REMARK  102  A    between atoms: _242  and  _244
REMARK  103  A    between atoms: _244  and  _245
REMARK  104  A    between atoms: _244  and  _247
REMARK  105  A    between atoms: _247  and  _248
REMARK  106  A    between atoms: _251  and  _253
REMARK  107  A    between atoms: _253  and  _254
REMARK  108  A    between atoms: _253  and  _256
REMARK  109  A    between atoms: _256  and  _257
REMARK  110  A    between atoms: _263  and  _265
REMARK  111  A    between atoms: _265  and  _266
REMARK  112  A    between atoms: _268  and  _270
REMARK  113  A    between atoms: _270  and  _271
REMARK  114  A    between atoms: _270  and  _273
REMARK  115  A    between atoms: _273  and  _274
REMARK  116  A    between atoms: _274  and  _275
REMARK  117  A    between atoms: _275  and  _276
REMARK  118  A    between atoms: _285  and  _287
REMARK  119  A    between atoms: _287  and  _288
REMARK  120  A    between atoms: _287  and  _290
REMARK  121  A    between atoms: _290  and  _291
REMARK  122  A    between atoms: _296  and  _298
REMARK  123  A    between atoms: _298  and  _299
REMARK  124  A    between atoms: _298  and  _301
REMARK  125  A    between atoms: _301  and  _302
REMARK  126  A    between atoms: _302  and  _303
REMARK  127  A    between atoms: _303  and  _304
REMARK  128  A    between atoms: _313  and  _315
REMARK  129  A    between atoms: _315  and  _316
REMARK  130  A    between atoms: _315  and  _318
REMARK  131  A    between atoms: _318  and  _319
REMARK  132  A    between atoms: _322  and  _324
REMARK  133  A    between atoms: _324  and  _325
REMARK  134  A    between atoms: _324  and  _327
REMARK  135  A    between atoms: _327  and  _328
REMARK  136  A    between atoms: _331  and  _333
REMARK  137  A    between atoms: _333  and  _334
REMARK  138  A    between atoms: _333  and  _336
REMARK  139  A    between atoms: _336  and  _337
REMARK  140  A    between atoms: _340  and  _342
REMARK  141  A    between atoms: _342  and  _343
REMARK  142  A    between atoms: _342  and  _345
REMARK  143  A    between atoms: _345  and  _346
REMARK  144  A    between atoms: _349  and  _351
REMARK  145  A    between atoms: _351  and  _352
REMARK  146  A    between atoms: _354  and  _356
REMARK  147  A    between atoms: _356  and  _357
REMARK  148  A    between atoms: _360  and  _362
REMARK  149  A    between atoms: _362  and  _363
REMARK  150  A    between atoms: _362  and  _365
REMARK  151  A    between atoms: _365  and  _366
REMARK  152  A    between atoms: _369  and  _371
REMARK  153  A    between atoms: _371  and  _372
REMARK  154  A    between atoms: _371  and  _374
REMARK  155  A    between atoms: _374  and  _375
REMARK  156  A    between atoms: _378  and  _380
REMARK  157  A    between atoms: _380  and  _381
REMARK  158  A    between atoms: _380  and  _383
REMARK  159  A    between atoms: _383  and  _384
REMARK  160  A    between atoms: _386  and  _388
REMARK  161  A    between atoms: _388  and  _389
REMARK  162  A    between atoms: _388  and  _391
REMARK  163  A    between atoms: _391  and  _392
REMARK  164  A    between atoms: _395  and  _397
REMARK  165  A    between atoms: _397  and  _398
REMARK  166  A    between atoms: _397  and  _400
REMARK  167  A    between atoms: _400  and  _401
REMARK  168  A    between atoms: _401  and  _402
REMARK  169  A    between atoms: _402  and  _403
REMARK  170  A    between atoms: _403  and  _404
REMARK  171  A    between atoms: _408  and  _410
REMARK  172  A    between atoms: _410  and  _411
REMARK  173  A    between atoms: _410  and  _413
REMARK  174  A    between atoms: _413  and  _414
REMARK  175  A    between atoms: _417  and  _419
REMARK  176  A    between atoms: _419  and  _420
REMARK  177  A    between atoms: _419  and  _422
REMARK  178  A    between atoms: _425  and  _427
REMARK  179  A    between atoms: _427  and  _428
REMARK  180  A    between atoms: _430  and  _432
REMARK  181  A    between atoms: _432  and  _433
REMARK  182  A    between atoms: _435  and  _437
REMARK  183  A    between atoms: _437  and  _438
REMARK  184  A    between atoms: _437  and  _440
REMARK  185  A    between atoms: _440  and  _441
REMARK  186  A    between atoms: _444  and  _446
REMARK  187  A    between atoms: _446  and  _447
REMARK  188  A    between atoms: _449  and  _451
REMARK  189  A    between atoms: _451  and  _452
REMARK  190  A    between atoms: _454  and  _456
REMARK  191  A    between atoms: _456  and  _457
REMARK  192  A    between atoms: _456  and  _459
REMARK  193  A    between atoms: _459  and  _460
REMARK  194  A    between atoms: _466  and  _468
REMARK  195  A    between atoms: _468  and  _469
REMARK  196  A    between atoms: _468  and  _471
REMARK  197  A    between atoms: _471  and  _472
REMARK  198  A    between atoms: _475  and  _477
REMARK  199  A    between atoms: _477  and  _478
REMARK  200  A    between atoms: _477  and  _480
REMARK  201  A    between atoms: _480  and  _481
REMARK  202  A    between atoms: _484  and  _486
REMARK  203  A    between atoms: _486  and  _487
REMARK  204  A    between atoms: _486  and  _489
REMARK  205  A    between atoms: _489  and  _490
REMARK  206  A    between atoms: _490  and  _491
REMARK  207  A    between atoms: _493  and  _495
REMARK  208  A    between atoms: _495  and  _496
REMARK  209  A    between atoms: _495  and  _498
REMARK  210  A    between atoms: _498  and  _499
REMARK  211  A    between atoms: _503  and  _504
REMARK  212  A    between atoms: _509  and  _511
REMARK  213  A    between atoms: _511  and  _512
REMARK  214  A    between atoms: _511  and  _514
REMARK  215  A    between atoms: _514  and  _515
REMARK  216  A    between atoms: _518  and  _520
REMARK  217  A    between atoms: _520  and  _521
REMARK  218  A    between atoms: _520  and  _523
REMARK  219  A    between atoms: _523  and  _524
REMARK  220  A    between atoms: _529  and  _531
REMARK  221  A    between atoms: _531  and  _532
REMARK  222  A    between atoms: _531  and  _534
REMARK  223  A    between atoms: _534  and  _535
REMARK  224  A    between atoms: _538  and  _540
REMARK  225  A    between atoms: _540  and  _541
REMARK  226  A    between atoms: _540  and  _543
REMARK  227  A    between atoms: _543  and  _544
REMARK  228  A    between atoms: _550  and  _552
REMARK  229  A    between atoms: _552  and  _553
REMARK  230  A    between atoms: _555  and  _557
REMARK  231  A    between atoms: _557  and  _558
REMARK  232  A    between atoms: _557  and  _560
REMARK  233  A    between atoms: _560  and  _561
REMARK  234  A    between atoms: _561  and  _562
REMARK  235  A    between atoms: _562  and  _563
REMARK  236  A    between atoms: _572  and  _574
REMARK  237  A    between atoms: _574  and  _575
REMARK  238  A    between atoms: _574  and  _577
REMARK  239  A    between atoms: _577  and  _578
REMARK                            x       y       z     vdW  Elec       q    Type
REMARK                         _______ _______ _______ _____ _____    ______ ____
ROOT
ATOM      1  O   HOH     1      10.556  -9.756  -1.593  0.00  0.00    +0.000 OA
ENDROOT
TORSDOF 0
REMARK  Name = ../refined-set-2016/1hsh/1hsh_pocket.pdb
REMARK  239 active torsions:
REMARK  status: ('A' for Active; 'I' for Inactive)
REMARK    1  A    between atoms: _1  and  _3
REMARK    2  A    between atoms: _3  and  _4
REMARK    3  A    between atoms: _3  and  _6
REMARK    4  A    between atoms: _6  and  _7
REMARK    5  A    between atoms: _7  and  _8
REMARK    6  A    between atoms: _8  and  _9
REMARK    7  A    between atoms: _18  and  _20
REMARK    8  A    between atoms: _20  and  _21
REMARK    9  A    between atoms: _20  and  _23
REMARK   10  A    between atoms: _23  and  _24
REMARK   11  A    between atoms: _27  and  _29
REMARK   12  A    between atoms: _29  and  _30
REMARK   13  A    between atoms: _29  and  _32
REMARK   14  A    between atoms: _32  and  _33
REMARK   15  A    between atoms: _36  and  _38
REMARK   16  A    between atoms: _38  and  _39
REMARK   17  A    between atoms: _38  and  _41
REMARK   18  A    between atoms: _41  and  _42
REMARK   19  A    between atoms: _45  and  _47
REMARK   20  A    between atoms: _47  and  _48
REMARK   21  A    between atoms: _47  and  _50
REMARK   22  A    between atoms: _50  and  _51
REMARK   23  A    between atoms: _54  and  _56
REMARK   24  A    between atoms: _56  and  _57
REMARK   25  A    between atoms: _59  and  _61
REMARK   26  A    between atoms: _61  and  _62
REMARK   27  A    between atoms: _65  and  _67
REMARK   28  A    between atoms: _67  and  _68
REMARK   29  A    between atoms: _67  and  _70
REMARK   30  A    between atoms: _70  and  _71
REMARK   31  A    between atoms: _74  and  _76
REMARK   32  A    between atoms: _76  and  _77
REMARK   33  A    between atoms: _76  and  _79
REMARK   34  A    between atoms: _79  and  _80
REMARK   35  A    between atoms: _83  and  _85
REMARK   36  A    between atoms: _85  and  _86
REMARK   37  A    between atoms: _85  and  _88
REMARK   38  A    between atoms: _88  and  _89
REMARK   39  A    between atoms: _91  and  _93
REMARK   40  A    between atoms: _93  and  _94
REMARK   41  A    between atoms: _93  and  _96
REMARK   42  A    between atoms: _96  and  _97
REMARK   43  A    between atoms: _100  and  _102
REMARK   44  A    between atoms: _102  and  _103
REMARK   45  A    between atoms: _102  and  _105
REMARK   46  A    between atoms: _108  and  _110
REMARK   47  A    between atoms: _110  and  _111
REMARK   48  A    between atoms: _110  and  _113
REMARK   49  A    between atoms: _113  and  _114
REMARK   50  A    between atoms: _114  and  _115
REMARK   51  A    between atoms: _115  and  _116
REMARK   52  A    between atoms: _116  and  _117
REMARK   53  A    between atoms: _121  and  _123
REMARK   54  A    between atoms: _123  and  _124
REMARK   55  A    between atoms: _123  and  _126
REMARK   56  A    between atoms: _126  and  _127
REMARK   57  A    between atoms: _130  and  _132
REMARK   58  A    between atoms: _132  and  _133
REMARK   59  A    between atoms: _132  and  _135
REMARK   60  A    between atoms: _138  and  _140
REMARK   61  A    between atoms: _140  and  _141
REMARK   62  A    between atoms: _143  and  _145
REMARK   63  A    between atoms: _145  and  _146
REMARK   64  A    between atoms: _148  and  _150
REMARK   65  A    between atoms: _150  and  _151
REMARK   66  A    between atoms: _150  and  _153
REMARK   67  A    between atoms: _153  and  _154
REMARK   68  A    between atoms: _157  and  _159
REMARK   69  A    between atoms: _159  and  _160
REMARK   70  A    between atoms: _162  and  _164
REMARK   71  A    between atoms: _164  and  _165
REMARK   72  A    between atoms: _167  and  _169
REMARK   73  A    between atoms: _169  and  _170
REMARK   74  A    between atoms: _169  and  _172
REMARK   75  A    between atoms: _172  and  _173
REMARK   76  A    between atoms: _179  and  _181
REMARK   77  A    between atoms: _181  and  _182
REMARK   78  A    between atoms: _181  and  _184
REMARK   79  A    between atoms: _184  and  _185
REMARK   80  A    between atoms: _188  and  _190
REMARK   81  A    between atoms: _190  and  _191
REMARK   82  A    between atoms: _190  and  _193
REMARK   83  A    between atoms: _193  and  _194
REMARK   84  A    between atoms: _197  and  _199
REMARK   85  A    between atoms: _199  and  _200
REMARK   86  A    between atoms: _199  and  _202
REMARK   87  A    between atoms: _202  and  _203
REMARK   88  A    between atoms: _203  and  _204
REMARK   89  A    between atoms: _206  and  _208
REMARK   90  A    between atoms: _208  and  _209
REMARK   91  A    between atoms: _208  and  _211
REMARK   92  A    between atoms: _211  and  _212
REMARK   93  A    between atoms: _216  and  _217
REMARK   94  A    between atoms: _222  and  _224
REMARK   95  A    between atoms: _224  and  _225
REMARK   96  A    between atoms: _224  and  _227
REMARK   97  A    between atoms: _227  and  _228
REMARK   98  A    between atoms: _231  and  _233
REMARK   99  A    between atoms: _233  and  _234
REMARK  100  A    between atoms: _233  and  _236
REMARK  101  A    between atoms: _236  and  _237
REMARK  102  A    between atoms: _242  and  _244
REMARK  103  A    between atoms: _244  and  _245
REMARK  104  A    between atoms: _244  and  _247
REMARK  105  A    between atoms: _247  and  _248
REMARK  106  A    between atoms: _251  and  _253
REMARK  107  A    between atoms: _253  and  _254
REMARK  108  A    between atoms: _253  and  _256
REMARK  109  A    between atoms: _256  and  _257
REMARK  110  A    between atoms: _263  and  _265
REMARK  111  A    between atoms: _265  and  _266
REMARK  112  A    between atoms: _268  and  _270
REMARK  113  A    between atoms: _270  and  _271
REMARK  114  A    between atoms: _270  and  _273
REMARK  115  A    between atoms: _273  and  _274
REMARK  116  A    between atoms: _274  and  _275
REMARK  117  A    between atoms: _275  and  _276
REMARK  118  A    between atoms: _285  and  _287
REMARK  119  A    between atoms: _287  and  _288
REMARK  120  A    between atoms: _287  and  _290
REMARK  121  A    between atoms: _290  and  _291
REMARK  122  A    between atoms: _296  and  _298
REMARK  123  A    between atoms: _298  and  _299
REMARK  124  A    between atoms: _298  and  _301
REMARK  125  A    between atoms: _301  and  _302
REMARK  126  A    between atoms: _302  and  _303
REMARK  127  A    between atoms: _303  and  _304
REMARK  128  A    between atoms: _313  and  _315
REMARK  129  A    between atoms: _315  and  _316
REMARK  130  A    between atoms: _315  and  _318
REMARK  131  A    between atoms: _318  and  _319
REMARK  132  A    between atoms: _322  and  _324
REMARK  133  A    between atoms: _324  and  _325
REMARK  134  A    between atoms: _324  and  _327
REMARK  135  A    between atoms: _327  and  _328
REMARK  136  A    between atoms: _331  and  _333
REMARK  137  A    between atoms: _333  and  _334
REMARK  138  A    between atoms: _333  and  _336
REMARK  139  A    between atoms: _336  and  _337
REMARK  140  A    between atoms: _340  and  _342
REMARK  141  A    between atoms: _342  and  _343
REMARK  142  A    between atoms: _342  and  _345
REMARK  143  A    between atoms: _345  and  _346
REMARK  144  A    between atoms: _349  and  _351
REMARK  145  A    between atoms: _351  and  _352
REMARK  146  A    between atoms: _354  and  _356
REMARK  147  A    between atoms: _356  and  _357
REMARK  148  A    between atoms: _360  and  _362
REMARK  149  A    between atoms: _362  and  _363
REMARK  150  A    between atoms: _362  and  _365
REMARK  151  A    between atoms: _365  and  _366
REMARK  152  A    between atoms: _369  and  _371
REMARK  153  A    between atoms: _371  and  _372
REMARK  154  A    between atoms: _371  and  _374
REMARK  155  A    between atoms: _374  and  _375
REMARK  156  A    between atoms: _378  and  _380
REMARK  157  A    between atoms: _380  and  _381
REMARK  158  A    between atoms: _380  and  _383
REMARK  159  A    between atoms: _383  and  _384
REMARK  160  A    between atoms: _386  and  _388
REMARK  161  A    between atoms: _388  and  _389
REMARK  162  A    between atoms: _388  and  _391
REMARK  163  A    between atoms: _391  and  _392
REMARK  164  A    between atoms: _395  and  _397
REMARK  165  A    between atoms: _397  and  _398
REMARK  166  A    between atoms: _397  and  _400
REMARK  167  A    between atoms: _400  and  _401
REMARK  168  A    between atoms: _401  and  _402
REMARK  169  A    between atoms: _402  and  _403
REMARK  170  A    between atoms: _403  and  _404
REMARK  171  A    between atoms: _408  and  _410
REMARK  172  A    between atoms: _410  and  _411
REMARK  173  A    between atoms: _410  and  _413
REMARK  174  A    between atoms: _413  and  _414
REMARK  175  A    between atoms: _417  and  _419
REMARK  176  A    between atoms: _419  and  _420
REMARK  177  A    between atoms: _419  and  _422
REMARK  178  A    between atoms: _425  and  _427
REMARK  179  A    between atoms: _427  and  _428
REMARK  180  A    between atoms: _430  and  _432
REMARK  181  A    between atoms: _432  and  _433
REMARK  182  A    between atoms: _435  and  _437
REMARK  183  A    between atoms: _437  and  _438
REMARK  184  A    between atoms: _437  and  _440
REMARK  185  A    between atoms: _440  and  _441
REMARK  186  A    between atoms: _444  and  _446
REMARK  187  A    between atoms: _446  and  _447
REMARK  188  A    between atoms: _449  and  _451
REMARK  189  A    between atoms: _451  and  _452
REMARK  190  A    between atoms: _454  and  _456
REMARK  191  A    between atoms: _456  and  _457
REMARK  192  A    between atoms: _456  and  _459
REMARK  193  A    between atoms: _459  and  _460
REMARK  194  A    between atoms: _466  and  _468
REMARK  195  A    between atoms: _468  and  _469
REMARK  196  A    between atoms: _468  and  _471
REMARK  197  A    between atoms: _471  and  _472
REMARK  198  A    between atoms: _475  and  _477
REMARK  199  A    between atoms: _477  and  _478
REMARK  200  A    between atoms: _477  and  _480
REMARK  201  A    between atoms: _480  and  _481
REMARK  202  A    between atoms: _484  and  _486
REMARK  203  A    between atoms: _486  and  _487
REMARK  204  A    between atoms: _486  and  _489
REMARK  205  A    between atoms: _489  and  _490
REMARK  206  A    between atoms: _490  and  _491
REMARK  207  A    between atoms: _493  and  _495
REMARK  208  A    between atoms: _495  and  _496
REMARK  209  A    between atoms: _495  and  _498
REMARK  210  A    between atoms: _498  and  _499
REMARK  211  A    between atoms: _503  and  _504
REMARK  212  A    between atoms: _509  and  _511
REMARK  213  A    between atoms: _511  and  _512
REMARK  214  A    between atoms: _511  and  _514
REMARK  215  A    between atoms: _514  and  _515
REMARK  216  A    between atoms: _518  and  _520
REMARK  217  A    between atoms: _520  and  _521
REMARK  218  A    between atoms: _520  and  _523
REMARK  219  A    between atoms: _523  and  _524
REMARK  220  A    between atoms: _529  and  _531
REMARK  221  A    between atoms: _531  and  _532
REMARK  222  A    between atoms: _531  and  _534
REMARK  223  A    between atoms: _534  and  _535
REMARK  224  A    between atoms: _538  and  _540
REMARK  225  A    between atoms: _540  and  _541
REMARK  226  A    between atoms: _540  and  _543
REMARK  227  A    between atoms: _543  and  _544
REMARK  228  A    between atoms: _550  and  _552
REMARK  229  A    between atoms: _552  and  _553
REMARK  230  A    between atoms: _555  and  _557
REMARK  231  A    between atoms: _557  and  _558
REMARK  232  A    between atoms: _557  and  _560
REMARK  233  A    between atoms: _560  and  _561
REMARK  234  A    between atoms: _561  and  _562
REMARK  235  A    between atoms: _562  and  _563
REMARK  236  A    between atoms: _572  and  _574
REMARK  237  A    between atoms: _574  and  _575
REMARK  238  A    between atoms: _574  and  _577
REMARK  239  A    between atoms: _577  and  _578
REMARK                            x       y       z     vdW  Elec       q    Type
REMARK                         _______ _______ _______ _____ _____    ______ ____
ROOT
ATOM      1  O   HOH     1      17.048   3.757  14.274  0.00  0.00    +0.000 OA
ENDROOT
TORSDOF 0
