REMARK  Name = ../refined-set-2016/2aoc/2aoc_pocket.pdb
REMARK  239 active torsions:
REMARK  status: ('A' for Active; 'I' for Inactive)
REMARK    1  A    between atoms: _1  and  _3
REMARK    2  A    between atoms: _3  and  _4
REMARK    3  A    between atoms: _3  and  _6
REMARK    4  A    between atoms: _6  and  _7
REMARK    5  A    between atoms: _7  and  _8
REMARK    6  A    between atoms: _8  and  _9
REMARK    7  A    between atoms: _18  and  _20
REMARK    8  A    between atoms: _20  and  _21
REMARK    9  A    between atoms: _20  and  _23
REMARK   10  A    between atoms: _23  and  _24
REMARK   11  A    between atoms: _27  and  _29
REMARK   12  A    between atoms: _29  and  _30
REMARK   13  A    between atoms: _29  and  _32
REMARK   14  A    between atoms: _33  and  _34
REMARK   15  A    between atoms: _37  and  _39
REMARK   16  A    between atoms: _39  and  _40
REMARK   17  A    between atoms: _39  and  _42
REMARK   18  A    between atoms: _42  and  _43
REMARK   19  A    between atoms: _46  and  _48
REMARK   20  A    between atoms: _48  and  _49
REMARK   21  A    between atoms: _48  and  _51
REMARK   22  A    between atoms: _51  and  _52
REMARK   23  A    between atoms: _55  and  _57
REMARK   24  A    between atoms: _57  and  _58
REMARK   25  A    between atoms: _57  and  _60
REMARK   26  A    between atoms: _60  and  _61
REMARK   27  A    between atoms: _64  and  _66
REMARK   28  A    between atoms: _66  and  _67
REMARK   29  A    between atoms: _66  and  _69
REMARK   30  A    between atoms: _69  and  _70
REMARK   31  A    between atoms: _73  and  _75
REMARK   32  A    between atoms: _75  and  _76
REMARK   33  A    between atoms: _78  and  _80
REMARK   34  A    between atoms: _80  and  _81
REMARK   35  A    between atoms: _84  and  _86
REMARK   36  A    between atoms: _86  and  _87
REMARK   37  A    between atoms: _86  and  _89
REMARK   38  A    between atoms: _89  and  _90
REMARK   39  A    between atoms: _93  and  _95
REMARK   40  A    between atoms: _95  and  _96
REMARK   41  A    between atoms: _95  and  _98
REMARK   42  A    between atoms: _98  and  _99
REMARK   43  A    between atoms: _102  and  _104
REMARK   44  A    between atoms: _104  and  _105
REMARK   45  A    between atoms: _104  and  _107
REMARK   46  A    between atoms: _107  and  _108
REMARK   47  A    between atoms: _111  and  _113
REMARK   48  A    between atoms: _113  and  _114
REMARK   49  A    between atoms: _113  and  _116
REMARK   50  A    between atoms: _119  and  _121
REMARK   51  A    between atoms: _121  and  _122
REMARK   52  A    between atoms: _121  and  _124
REMARK   53  A    between atoms: _124  and  _125
REMARK   54  A    between atoms: _125  and  _126
REMARK   55  A    between atoms: _126  and  _127
REMARK   56  A    between atoms: _127  and  _128
REMARK   57  A    between atoms: _132  and  _134
REMARK   58  A    between atoms: _134  and  _135
REMARK   59  A    between atoms: _134  and  _137
REMARK   60  A    between atoms: _137  and  _138
REMARK   61  A    between atoms: _138  and  _139
REMARK   62  A    between atoms: _141  and  _143
REMARK   63  A    between atoms: _143  and  _144
REMARK   64  A    between atoms: _143  and  _146
REMARK   65  A    between atoms: _146  and  _147
REMARK   66  A    between atoms: _150  and  _152
REMARK   67  A    between atoms: _152  and  _153
REMARK   68  A    between atoms: _155  and  _157
REMARK   69  A    between atoms: _157  and  _158
REMARK   70  A    between atoms: _160  and  _162
REMARK   71  A    between atoms: _162  and  _163
REMARK   72  A    between atoms: _162  and  _165
REMARK   73  A    between atoms: _165  and  _166
REMARK   74  A    between atoms: _169  and  _171
REMARK   75  A    between atoms: _171  and  _172
REMARK   76  A    between atoms: _174  and  _176
REMARK   77  A    between atoms: _176  and  _177
REMARK   78  A    between atoms: _179  and  _181
REMARK   79  A    between atoms: _181  and  _182
REMARK   80  A    between atoms: _181  and  _184
REMARK   81  A    between atoms: _184  and  _185
REMARK   82  A    between atoms: _191  and  _193
REMARK   83  A    between atoms: _193  and  _194
REMARK   84  A    between atoms: _193  and  _196
REMARK   85  A    between atoms: _196  and  _197
REMARK   86  A    between atoms: _200  and  _202
REMARK   87  A    between atoms: _202  and  _203
REMARK   88  A    between atoms: _202  and  _205
REMARK   89  A    between atoms: _208  and  _210
REMARK   90  A    between atoms: _210  and  _211
REMARK   91  A    between atoms: _210  and  _213
REMARK   92  A    between atoms: _213  and  _214
REMARK   93  A    between atoms: _218  and  _219
REMARK   94  A    between atoms: _224  and  _226
REMARK   95  A    between atoms: _226  and  _227
REMARK   96  A    between atoms: _226  and  _229
REMARK   97  A    between atoms: _229  and  _230
REMARK   98  A    between atoms: _234  and  _235
REMARK   99  A    between atoms: _240  and  _242
REMARK  100  A    between atoms: _242  and  _243
REMARK  101  A    between atoms: _242  and  _245
REMARK  102  A    between atoms: _248  and  _250
REMARK  103  A    between atoms: _250  and  _251
REMARK  104  A    between atoms: _250  and  _253
REMARK  105  A    between atoms: _253  and  _254
REMARK  106  A    between atoms: _259  and  _261
REMARK  107  A    between atoms: _261  and  _262
REMARK  108  A    between atoms: _261  and  _264
REMARK  109  A    between atoms: _267  and  _269
REMARK  110  A    between atoms: _269  and  _270
REMARK  111  A    between atoms: _269  and  _272
REMARK  112  A    between atoms: _272  and  _273
REMARK  113  A    between atoms: _276  and  _278
REMARK  114  A    between atoms: _278  and  _279
REMARK  115  A    between atoms: _281  and  _283
REMARK  116  A    between atoms: _283  and  _284
REMARK  117  A    between atoms: _283  and  _286
REMARK  118  A    between atoms: _287  and  _288
REMARK  119  A    between atoms: _288  and  _289
REMARK  120  A    between atoms: _298  and  _300
REMARK  121  A    between atoms: _300  and  _301
REMARK  122  A    between atoms: _300  and  _303
REMARK  123  A    between atoms: _303  and  _304
REMARK  124  A    between atoms: _309  and  _311
REMARK  125  A    between atoms: _311  and  _312
REMARK  126  A    between atoms: _311  and  _314
REMARK  127  A    between atoms: _314  and  _315
REMARK  128  A    between atoms: _315  and  _316
REMARK  129  A    between atoms: _316  and  _317
REMARK  130  A    between atoms: _326  and  _328
REMARK  131  A    between atoms: _328  and  _329
REMARK  132  A    between atoms: _328  and  _331
REMARK  133  A    between atoms: _331  and  _332
REMARK  134  A    between atoms: _335  and  _337
REMARK  135  A    between atoms: _337  and  _338
REMARK  136  A    between atoms: _337  and  _340
REMARK  137  A    between atoms: _340  and  _341
REMARK  138  A    between atoms: _344  and  _346
REMARK  139  A    between atoms: _346  and  _347
REMARK  140  A    between atoms: _346  and  _349
REMARK  141  A    between atoms: _349  and  _350
REMARK  142  A    between atoms: _353  and  _355
REMARK  143  A    between atoms: _355  and  _356
REMARK  144  A    between atoms: _355  and  _358
REMARK  145  A    between atoms: _358  and  _359
REMARK  146  A    between atoms: _362  and  _364
REMARK  147  A    between atoms: _364  and  _365
REMARK  148  A    between atoms: _367  and  _369
REMARK  149  A    between atoms: _369  and  _370
REMARK  150  A    between atoms: _373  and  _375
REMARK  151  A    between atoms: _375  and  _376
REMARK  152  A    between atoms: _375  and  _378
REMARK  153  A    between atoms: _378  and  _379
REMARK  154  A    between atoms: _382  and  _384
REMARK  155  A    between atoms: _384  and  _385
REMARK  156  A    between atoms: _384  and  _387
REMARK  157  A    between atoms: _387  and  _388
REMARK  158  A    between atoms: _391  and  _393
REMARK  159  A    between atoms: _393  and  _394
REMARK  160  A    between atoms: _393  and  _396
REMARK  161  A    between atoms: _396  and  _397
REMARK  162  A    between atoms: _400  and  _402
REMARK  163  A    between atoms: _402  and  _403
REMARK  164  A    between atoms: _402  and  _405
REMARK  165  A    between atoms: _408  and  _410
REMARK  166  A    between atoms: _410  and  _411
REMARK  167  A    between atoms: _410  and  _413
REMARK  168  A    between atoms: _413  and  _414
REMARK  169  A    between atoms: _414  and  _415
REMARK  170  A    between atoms: _415  and  _416
REMARK  171  A    between atoms: _416  and  _417
REMARK  172  A    between atoms: _421  and  _423
REMARK  173  A    between atoms: _423  and  _424
REMARK  174  A    between atoms: _423  and  _426
REMARK  175  A    between atoms: _426  and  _427
REMARK  176  A    between atoms: _427  and  _428
REMARK  177  A    between atoms: _430  and  _432
REMARK  178  A    between atoms: _432  and  _433
REMARK  179  A    between atoms: _432  and  _435
REMARK  180  A    between atoms: _435  and  _436
REMARK  181  A    between atoms: _439  and  _441
REMARK  182  A    between atoms: _441  and  _442
REMARK  183  A    between atoms: _444  and  _446
REMARK  184  A    between atoms: _446  and  _447
REMARK  185  A    between atoms: _449  and  _451
REMARK  186  A    between atoms: _451  and  _452
REMARK  187  A    between atoms: _451  and  _454
REMARK  188  A    between atoms: _454  and  _455
REMARK  189  A    between atoms: _458  and  _460
REMARK  190  A    between atoms: _460  and  _461
REMARK  191  A    between atoms: _463  and  _465
REMARK  192  A    between atoms: _465  and  _466
REMARK  193  A    between atoms: _468  and  _470
REMARK  194  A    between atoms: _470  and  _471
REMARK  195  A    between atoms: _470  and  _473
REMARK  196  A    between atoms: _473  and  _474
REMARK  197  A    between atoms: _480  and  _482
REMARK  198  A    between atoms: _482  and  _483
REMARK  199  A    between atoms: _482  and  _485
REMARK  200  A    between atoms: _485  and  _486
REMARK  201  A    between atoms: _489  and  _491
REMARK  202  A    between atoms: _491  and  _492
REMARK  203  A    between atoms: _491  and  _494
REMARK  204  A    between atoms: _497  and  _499
REMARK  205  A    between atoms: _499  and  _500
REMARK  206  A    between atoms: _499  and  _502
REMARK  207  A    between atoms: _502  and  _503
REMARK  208  A    between atoms: _507  and  _508
REMARK  209  A    between atoms: _513  and  _515
REMARK  210  A    between atoms: _515  and  _516
REMARK  211  A    between atoms: _515  and  _518
REMARK  212  A    between atoms: _518  and  _519
REMARK  213  A    between atoms: _523  and  _524
REMARK  214  A    between atoms: _529  and  _531
REMARK  215  A    between atoms: _531  and  _532
REMARK  216  A    between atoms: _531  and  _534
REMARK  217  A    between atoms: _537  and  _539
REMARK  218  A    between atoms: _539  and  _540
REMARK  219  A    between atoms: _539  and  _542
REMARK  220  A    between atoms: _542  and  _543
REMARK  221  A    between atoms: _548  and  _550
REMARK  222  A    between atoms: _550  and  _551
REMARK  223  A    between atoms: _550  and  _553
REMARK  224  A    between atoms: _556  and  _558
REMARK  225  A    between atoms: _558  and  _559
REMARK  226  A    between atoms: _558  and  _561
REMARK  227  A    between atoms: _561  and  _562
REMARK  228  A    between atoms: _565  and  _567
REMARK  229  A    between atoms: _567  and  _568
REMARK  230  A    between atoms: _570  and  _572
REMARK  231  A    between atoms: _572  and  _573
REMARK  232  A    between atoms: _572  and  _575
REMARK  233  A    between atoms: _575  and  _576
REMARK  234  A    between atoms: _576  and  _577
REMARK  235  A    between atoms: _577  and  _578
REMARK  236  A    between atoms: _587  and  _589
REMARK  237  A    between atoms: _589  and  _590
REMARK  238  A    between atoms: _589  and  _592
REMARK  239  A    between atoms: _592  and  _593
REMARK                            x       y       z     vdW  Elec       q    Type
REMARK                         _______ _______ _______ _____ _____    ______ ____
ROOT
ATOM      1  NE  ARG A   1       5.672  20.287  15.587  0.00  0.00    -0.265 N 
ATOM      2  HE  ARG A   1       5.953  20.216  16.586  0.00  0.00    +0.259 HD
ATOM      3  CZ  ARG A   1       5.737  19.203  14.838  0.00  0.00    +0.342 C 
ATOM      4  NH2 ARG A   1       6.158  18.090  15.398  0.00  0.00    -0.292 N 
ATOM      5 HH21 ARG A   1       6.427  18.083  16.402  0.00  0.00    +0.255 HD
ATOM      6 HH22 ARG A   1       6.221  17.217  14.836  0.00  0.00    +0.255 HD
ATOM      7  NH1 ARG A   1       5.403  19.213  13.554  0.00  0.00    -0.292 N 
ATOM      8 HH11 ARG A   1       5.078  20.094  13.108  0.00  0.00    +0.255 HD
ATOM      9 HH12 ARG A   1       5.466  18.339  12.993  0.00  0.00    +0.255 HD
ENDROOT
BRANCH   1  10
ATOM     10  CD  ARG A   1       5.229  21.569  15.085  0.00  0.00    +0.174 C 
BRANCH  10  11
ATOM     11  CG  ARG A   1       4.899  22.458  16.267  0.00  0.00    +0.045 C 
BRANCH  11  12
ATOM     12  CB  ARG A   1       4.387  23.829  15.776  0.00  0.00    +0.029 C 
BRANCH  12  13
ATOM     13  CA  ARG A   1       3.808  24.679  16.928  0.00  0.00    +0.133 C 
BRANCH  13  14
ATOM     14  N   ARG A   1       2.567  24.100  17.394  0.00  0.00    -0.239 NA
ATOM     15  H   ARG A   1       2.198  23.235  16.950  0.00  0.00    +0.142 HD
ENDBRANCH  13  14
BRANCH  13  16
ATOM     16  C   ARG A   1       3.564  26.076  16.390  0.00  0.00    +0.224 C 
ATOM     17  O   ARG A   1       2.588  26.266  15.675  0.00  0.00    -0.287 OA
ENDBRANCH  13  16
ENDBRANCH  12  13
ENDBRANCH  11  12
ENDBRANCH  10  11
ENDBRANCH   1  10
TORSDOF 6
REMARK  Name = ../refined-set-2016/2aoc/2aoc_pocket.pdb
REMARK  239 active torsions:
REMARK  status: ('A' for Active; 'I' for Inactive)
REMARK    1  A    between atoms: _1  and  _3
REMARK    2  A    between atoms: _3  and  _4
REMARK    3  A    between atoms: _3  and  _6
REMARK    4  A    between atoms: _6  and  _7
REMARK    5  A    between atoms: _7  and  _8
REMARK    6  A    between atoms: _8  and  _9
REMARK    7  A    between atoms: _18  and  _20
REMARK    8  A    between atoms: _20  and  _21
REMARK    9  A    between atoms: _20  and  _23
REMARK   10  A    between atoms: _23  and  _24
REMARK   11  A    between atoms: _27  and  _29
REMARK   12  A    between atoms: _29  and  _30
REMARK   13  A    between atoms: _29  and  _32
REMARK   14  A    between atoms: _33  and  _34
REMARK   15  A    between atoms: _37  and  _39
REMARK   16  A    between atoms: _39  and  _40
REMARK   17  A    between atoms: _39  and  _42
REMARK   18  A    between atoms: _42  and  _43
REMARK   19  A    between atoms: _46  and  _48
REMARK   20  A    between atoms: _48  and  _49
REMARK   21  A    between atoms: _48  and  _51
REMARK   22  A    between atoms: _51  and  _52
REMARK   23  A    between atoms: _55  and  _57
REMARK   24  A    between atoms: _57  and  _58
REMARK   25  A    between atoms: _57  and  _60
REMARK   26  A    between atoms: _60  and  _61
REMARK   27  A    between atoms: _64  and  _66
REMARK   28  A    between atoms: _66  and  _67
REMARK   29  A    between atoms: _66  and  _69
REMARK   30  A    between atoms: _69  and  _70
REMARK   31  A    between atoms: _73  and  _75
REMARK   32  A    between atoms: _75  and  _76
REMARK   33  A    between atoms: _78  and  _80
REMARK   34  A    between atoms: _80  and  _81
REMARK   35  A    between atoms: _84  and  _86
REMARK   36  A    between atoms: _86  and  _87
REMARK   37  A    between atoms: _86  and  _89
REMARK   38  A    between atoms: _89  and  _90
REMARK   39  A    between atoms: _93  and  _95
REMARK   40  A    between atoms: _95  and  _96
REMARK   41  A    between atoms: _95  and  _98
REMARK   42  A    between atoms: _98  and  _99
REMARK   43  A    between atoms: _102  and  _104
REMARK   44  A    between atoms: _104  and  _105
REMARK   45  A    between atoms: _104  and  _107
REMARK   46  A    between atoms: _107  and  _108
REMARK   47  A    between atoms: _111  and  _113
REMARK   48  A    between atoms: _113  and  _114
REMARK   49  A    between atoms: _113  and  _116
REMARK   50  A    between atoms: _119  and  _121
REMARK   51  A    between atoms: _121  and  _122
REMARK   52  A    between atoms: _121  and  _124
REMARK   53  A    between atoms: _124  and  _125
REMARK   54  A    between atoms: _125  and  _126
REMARK   55  A    between atoms: _126  and  _127
REMARK   56  A    between atoms: _127  and  _128
REMARK   57  A    between atoms: _132  and  _134
REMARK   58  A    between atoms: _134  and  _135
REMARK   59  A    between atoms: _134  and  _137
REMARK   60  A    between atoms: _137  and  _138
REMARK   61  A    between atoms: _138  and  _139
REMARK   62  A    between atoms: _141  and  _143
REMARK   63  A    between atoms: _143  and  _144
REMARK   64  A    between atoms: _143  and  _146
REMARK   65  A    between atoms: _146  and  _147
REMARK   66  A    between atoms: _150  and  _152
REMARK   67  A    between atoms: _152  and  _153
REMARK   68  A    between atoms: _155  and  _157
REMARK   69  A    between atoms: _157  and  _158
REMARK   70  A    between atoms: _160  and  _162
REMARK   71  A    between atoms: _162  and  _163
REMARK   72  A    between atoms: _162  and  _165
REMARK   73  A    between atoms: _165  and  _166
REMARK   74  A    between atoms: _169  and  _171
REMARK   75  A    between atoms: _171  and  _172
REMARK   76  A    between atoms: _174  and  _176
REMARK   77  A    between atoms: _176  and  _177
REMARK   78  A    between atoms: _179  and  _181
REMARK   79  A    between atoms: _181  and  _182
REMARK   80  A    between atoms: _181  and  _184
REMARK   81  A    between atoms: _184  and  _185
REMARK   82  A    between atoms: _191  and  _193
REMARK   83  A    between atoms: _193  and  _194
REMARK   84  A    between atoms: _193  and  _196
REMARK   85  A    between atoms: _196  and  _197
REMARK   86  A    between atoms: _200  and  _202
REMARK   87  A    between atoms: _202  and  _203
REMARK   88  A    between atoms: _202  and  _205
REMARK   89  A    between atoms: _208  and  _210
REMARK   90  A    between atoms: _210  and  _211
REMARK   91  A    between atoms: _210  and  _213
REMARK   92  A    between atoms: _213  and  _214
REMARK   93  A    between atoms: _218  and  _219
REMARK   94  A    between atoms: _224  and  _226
REMARK   95  A    between atoms: _226  and  _227
REMARK   96  A    between atoms: _226  and  _229
REMARK   97  A    between atoms: _229  and  _230
REMARK   98  A    between atoms: _234  and  _235
REMARK   99  A    between atoms: _240  and  _242
REMARK  100  A    between atoms: _242  and  _243
REMARK  101  A    between atoms: _242  and  _245
REMARK  102  A    between atoms: _248  and  _250
REMARK  103  A    between atoms: _250  and  _251
REMARK  104  A    between atoms: _250  and  _253
REMARK  105  A    between atoms: _253  and  _254
REMARK  106  A    between atoms: _259  and  _261
REMARK  107  A    between atoms: _261  and  _262
REMARK  108  A    between atoms: _261  and  _264
REMARK  109  A    between atoms: _267  and  _269
REMARK  110  A    between atoms: _269  and  _270
REMARK  111  A    between atoms: _269  and  _272
REMARK  112  A    between atoms: _272  and  _273
REMARK  113  A    between atoms: _276  and  _278
REMARK  114  A    between atoms: _278  and  _279
REMARK  115  A    between atoms: _281  and  _283
REMARK  116  A    between atoms: _283  and  _284
REMARK  117  A    between atoms: _283  and  _286
REMARK  118  A    between atoms: _287  and  _288
REMARK  119  A    between atoms: _288  and  _289
REMARK  120  A    between atoms: _298  and  _300
REMARK  121  A    between atoms: _300  and  _301
REMARK  122  A    between atoms: _300  and  _303
REMARK  123  A    between atoms: _303  and  _304
REMARK  124  A    between atoms: _309  and  _311
REMARK  125  A    between atoms: _311  and  _312
REMARK  126  A    between atoms: _311  and  _314
REMARK  127  A    between atoms: _314  and  _315
REMARK  128  A    between atoms: _315  and  _316
REMARK  129  A    between atoms: _316  and  _317
REMARK  130  A    between atoms: _326  and  _328
REMARK  131  A    between atoms: _328  and  _329
REMARK  132  A    between atoms: _328  and  _331
REMARK  133  A    between atoms: _331  and  _332
REMARK  134  A    between atoms: _335  and  _337
REMARK  135  A    between atoms: _337  and  _338
REMARK  136  A    between atoms: _337  and  _340
REMARK  137  A    between atoms: _340  and  _341
REMARK  138  A    between atoms: _344  and  _346
REMARK  139  A    between atoms: _346  and  _347
REMARK  140  A    between atoms: _346  and  _349
REMARK  141  A    between atoms: _349  and  _350
REMARK  142  A    between atoms: _353  and  _355
REMARK  143  A    between atoms: _355  and  _356
REMARK  144  A    between atoms: _355  and  _358
REMARK  145  A    between atoms: _358  and  _359
REMARK  146  A    between atoms: _362  and  _364
REMARK  147  A    between atoms: _364  and  _365
REMARK  148  A    between atoms: _367  and  _369
REMARK  149  A    between atoms: _369  and  _370
REMARK  150  A    between atoms: _373  and  _375
REMARK  151  A    between atoms: _375  and  _376
REMARK  152  A    between atoms: _375  and  _378
REMARK  153  A    between atoms: _378  and  _379
REMARK  154  A    between atoms: _382  and  _384
REMARK  155  A    between atoms: _384  and  _385
REMARK  156  A    between atoms: _384  and  _387
REMARK  157  A    between atoms: _387  and  _388
REMARK  158  A    between atoms: _391  and  _393
REMARK  159  A    between atoms: _393  and  _394
REMARK  160  A    between atoms: _393  and  _396
REMARK  161  A    between atoms: _396  and  _397
REMARK  162  A    between atoms: _400  and  _402
REMARK  163  A    between atoms: _402  and  _403
REMARK  164  A    between atoms: _402  and  _405
REMARK  165  A    between atoms: _408  and  _410
REMARK  166  A    between atoms: _410  and  _411
REMARK  167  A    between atoms: _410  and  _413
REMARK  168  A    between atoms: _413  and  _414
REMARK  169  A    between atoms: _414  and  _415
REMARK  170  A    between atoms: _415  and  _416
REMARK  171  A    between atoms: _416  and  _417
REMARK  172  A    between atoms: _421  and  _423
REMARK  173  A    between atoms: _423  and  _424
REMARK  174  A    between atoms: _423  and  _426
REMARK  175  A    between atoms: _426  and  _427
REMARK  176  A    between atoms: _427  and  _428
REMARK  177  A    between atoms: _430  and  _432
REMARK  178  A    between atoms: _432  and  _433
REMARK  179  A    between atoms: _432  and  _435
REMARK  180  A    between atoms: _435  and  _436
REMARK  181  A    between atoms: _439  and  _441
REMARK  182  A    between atoms: _441  and  _442
REMARK  183  A    between atoms: _444  and  _446
REMARK  184  A    between atoms: _446  and  _447
REMARK  185  A    between atoms: _449  and  _451
REMARK  186  A    between atoms: _451  and  _452
REMARK  187  A    between atoms: _451  and  _454
REMARK  188  A    between atoms: _454  and  _455
REMARK  189  A    between atoms: _458  and  _460
REMARK  190  A    between atoms: _460  and  _461
REMARK  191  A    between atoms: _463  and  _465
REMARK  192  A    between atoms: _465  and  _466
REMARK  193  A    between atoms: _468  and  _470
REMARK  194  A    between atoms: _470  and  _471
REMARK  195  A    between atoms: _470  and  _473
REMARK  196  A    between atoms: _473  and  _474
REMARK  197  A    between atoms: _480  and  _482
REMARK  198  A    between atoms: _482  and  _483
REMARK  199  A    between atoms: _482  and  _485
REMARK  200  A    between atoms: _485  and  _486
REMARK  201  A    between atoms: _489  and  _491
REMARK  202  A    between atoms: _491  and  _492
REMARK  203  A    between atoms: _491  and  _494
REMARK  204  A    between atoms: _497  and  _499
REMARK  205  A    between atoms: _499  and  _500
REMARK  206  A    between atoms: _499  and  _502
REMARK  207  A    between atoms: _502  and  _503
REMARK  208  A    between atoms: _507  and  _508
REMARK  209  A    between atoms: _513  and  _515
REMARK  210  A    between atoms: _515  and  _516
REMARK  211  A    between atoms: _515  and  _518
REMARK  212  A    between atoms: _518  and  _519
REMARK  213  A    between atoms: _523  and  _524
REMARK  214  A    between atoms: _529  and  _531
REMARK  215  A    between atoms: _531  and  _532
REMARK  216  A    between atoms: _531  and  _534
REMARK  217  A    between atoms: _537  and  _539
REMARK  218  A    between atoms: _539  and  _540
REMARK  219  A    between atoms: _539  and  _542
REMARK  220  A    between atoms: _542  and  _543
REMARK  221  A    between atoms: _548  and  _550
REMARK  222  A    between atoms: _550  and  _551
REMARK  223  A    between atoms: _550  and  _553
REMARK  224  A    between atoms: _556  and  _558
REMARK  225  A    between atoms: _558  and  _559
REMARK  226  A    between atoms: _558  and  _561
REMARK  227  A    between atoms: _561  and  _562
REMARK  228  A    between atoms: _565  and  _567
REMARK  229  A    between atoms: _567  and  _568
REMARK  230  A    between atoms: _570  and  _572
REMARK  231  A    between atoms: _572  and  _573
REMARK  232  A    between atoms: _572  and  _575
REMARK  233  A    between atoms: _575  and  _576
REMARK  234  A    between atoms: _576  and  _577
REMARK  235  A    between atoms: _577  and  _578
REMARK  236  A    between atoms: _587  and  _589
REMARK  237  A    between atoms: _589  and  _590
REMARK  238  A    between atoms: _589  and  _592
REMARK  239  A    between atoms: _592  and  _593
REMARK                            x       y       z     vdW  Elec       q    Type
REMARK                         _______ _______ _______ _____ _____    ______ ____
ROOT
ATOM      1  CA  LEU A   1       4.174  28.411  12.536  0.00  0.00    +0.133 C 
ENDROOT
BRANCH   1   2
ATOM      2  N   LEU A   1       3.904  28.305  13.949  0.00  0.00    -0.239 NA
ATOM      3  H   LEU A   1       2.989  27.911  14.247  0.00  0.00    +0.142 HD
ENDBRANCH   1   2
BRANCH   1   4
ATOM      4  C   LEU A   1       3.566  29.682  11.980  0.00  0.00    +0.224 C 
ATOM      5  O   LEU A   1       2.428  29.984  12.323  0.00  0.00    -0.287 OA
ENDBRANCH   1   4
BRANCH   1   6
ATOM      6  CB  LEU A   1       3.548  27.233  11.802  0.00  0.00    +0.025 C 
BRANCH   6   7
ATOM      7  CG  LEU A   1       4.178  25.890  12.117  0.00  0.00    +0.002 C 
ATOM      8  CD2 LEU A   1       5.619  25.858  11.692  0.00  0.00    +0.000 C 
ATOM      9  CD1 LEU A   1       3.292  24.828  11.449  0.00  0.00    +0.000 C 
ENDBRANCH   6   7
ENDBRANCH   1   6
TORSDOF 4
REMARK  Name = ../refined-set-2016/2aoc/2aoc_pocket.pdb
REMARK  239 active torsions:
REMARK  status: ('A' for Active; 'I' for Inactive)
REMARK    1  A    between atoms: _1  and  _3
REMARK    2  A    between atoms: _3  and  _4
REMARK    3  A    between atoms: _3  and  _6
REMARK    4  A    between atoms: _6  and  _7
REMARK    5  A    between atoms: _7  and  _8
REMARK    6  A    between atoms: _8  and  _9
REMARK    7  A    between atoms: _18  and  _20
REMARK    8  A    between atoms: _20  and  _21
REMARK    9  A    between atoms: _20  and  _23
REMARK   10  A    between atoms: _23  and  _24
REMARK   11  A    between atoms: _27  and  _29
REMARK   12  A    between atoms: _29  and  _30
REMARK   13  A    between atoms: _29  and  _32
REMARK   14  A    between atoms: _33  and  _34
REMARK   15  A    between atoms: _37  and  _39
REMARK   16  A    between atoms: _39  and  _40
REMARK   17  A    between atoms: _39  and  _42
REMARK   18  A    between atoms: _42  and  _43
REMARK   19  A    between atoms: _46  and  _48
REMARK   20  A    between atoms: _48  and  _49
REMARK   21  A    between atoms: _48  and  _51
REMARK   22  A    between atoms: _51  and  _52
REMARK   23  A    between atoms: _55  and  _57
REMARK   24  A    between atoms: _57  and  _58
REMARK   25  A    between atoms: _57  and  _60
REMARK   26  A    between atoms: _60  and  _61
REMARK   27  A    between atoms: _64  and  _66
REMARK   28  A    between atoms: _66  and  _67
REMARK   29  A    between atoms: _66  and  _69
REMARK   30  A    between atoms: _69  and  _70
REMARK   31  A    between atoms: _73  and  _75
REMARK   32  A    between atoms: _75  and  _76
REMARK   33  A    between atoms: _78  and  _80
REMARK   34  A    between atoms: _80  and  _81
REMARK   35  A    between atoms: _84  and  _86
REMARK   36  A    between atoms: _86  and  _87
REMARK   37  A    between atoms: _86  and  _89
REMARK   38  A    between atoms: _89  and  _90
REMARK   39  A    between atoms: _93  and  _95
REMARK   40  A    between atoms: _95  and  _96
REMARK   41  A    between atoms: _95  and  _98
REMARK   42  A    between atoms: _98  and  _99
REMARK   43  A    between atoms: _102  and  _104
REMARK   44  A    between atoms: _104  and  _105
REMARK   45  A    between atoms: _104  and  _107
REMARK   46  A    between atoms: _107  and  _108
REMARK   47  A    between atoms: _111  and  _113
REMARK   48  A    between atoms: _113  and  _114
REMARK   49  A    between atoms: _113  and  _116
REMARK   50  A    between atoms: _119  and  _121
REMARK   51  A    between atoms: _121  and  _122
REMARK   52  A    between atoms: _121  and  _124
REMARK   53  A    between atoms: _124  and  _125
REMARK   54  A    between atoms: _125  and  _126
REMARK   55  A    between atoms: _126  and  _127
REMARK   56  A    between atoms: _127  and  _128
REMARK   57  A    between atoms: _132  and  _134
REMARK   58  A    between atoms: _134  and  _135
REMARK   59  A    between atoms: _134  and  _137
REMARK   60  A    between atoms: _137  and  _138
REMARK   61  A    between atoms: _138  and  _139
REMARK   62  A    between atoms: _141  and  _143
REMARK   63  A    between atoms: _143  and  _144
REMARK   64  A    between atoms: _143  and  _146
REMARK   65  A    between atoms: _146  and  _147
REMARK   66  A    between atoms: _150  and  _152
REMARK   67  A    between atoms: _152  and  _153
REMARK   68  A    between atoms: _155  and  _157
REMARK   69  A    between atoms: _157  and  _158
REMARK   70  A    between atoms: _160  and  _162
REMARK   71  A    between atoms: _162  and  _163
REMARK   72  A    between atoms: _162  and  _165
REMARK   73  A    between atoms: _165  and  _166
REMARK   74  A    between atoms: _169  and  _171
REMARK   75  A    between atoms: _171  and  _172
REMARK   76  A    between atoms: _174  and  _176
REMARK   77  A    between atoms: _176  and  _177
REMARK   78  A    between atoms: _179  and  _181
REMARK   79  A    between atoms: _181  and  _182
REMARK   80  A    between atoms: _181  and  _184
REMARK   81  A    between atoms: _184  and  _185
REMARK   82  A    between atoms: _191  and  _193
REMARK   83  A    between atoms: _193  and  _194
REMARK   84  A    between atoms: _193  and  _196
REMARK   85  A    between atoms: _196  and  _197
REMARK   86  A    between atoms: _200  and  _202
REMARK   87  A    between atoms: _202  and  _203
REMARK   88  A    between atoms: _202  and  _205
REMARK   89  A    between atoms: _208  and  _210
REMARK   90  A    between atoms: _210  and  _211
REMARK   91  A    between atoms: _210  and  _213
REMARK   92  A    between atoms: _213  and  _214
REMARK   93  A    between atoms: _218  and  _219
REMARK   94  A    between atoms: _224  and  _226
REMARK   95  A    between atoms: _226  and  _227
REMARK   96  A    between atoms: _226  and  _229
REMARK   97  A    between atoms: _229  and  _230
REMARK   98  A    between atoms: _234  and  _235
REMARK   99  A    between atoms: _240  and  _242
REMARK  100  A    between atoms: _242  and  _243
REMARK  101  A    between atoms: _242  and  _245
REMARK  102  A    between atoms: _248  and  _250
REMARK  103  A    between atoms: _250  and  _251
REMARK  104  A    between atoms: _250  and  _253
REMARK  105  A    between atoms: _253  and  _254
REMARK  106  A    between atoms: _259  and  _261
REMARK  107  A    between atoms: _261  and  _262
REMARK  108  A    between atoms: _261  and  _264
REMARK  109  A    between atoms: _267  and  _269
REMARK  110  A    between atoms: _269  and  _270
REMARK  111  A    between atoms: _269  and  _272
REMARK  112  A    between atoms: _272  and  _273
REMARK  113  A    between atoms: _276  and  _278
REMARK  114  A    between atoms: _278  and  _279
REMARK  115  A    between atoms: _281  and  _283
REMARK  116  A    between atoms: _283  and  _284
REMARK  117  A    between atoms: _283  and  _286
REMARK  118  A    between atoms: _287  and  _288
REMARK  119  A    between atoms: _288  and  _289
REMARK  120  A    between atoms: _298  and  _300
REMARK  121  A    between atoms: _300  and  _301
REMARK  122  A    between atoms: _300  and  _303
REMARK  123  A    between atoms: _303  and  _304
REMARK  124  A    between atoms: _309  and  _311
REMARK  125  A    between atoms: _311  and  _312
REMARK  126  A    between atoms: _311  and  _314
REMARK  127  A    between atoms: _314  and  _315
REMARK  128  A    between atoms: _315  and  _316
REMARK  129  A    between atoms: _316  and  _317
REMARK  130  A    between atoms: _326  and  _328
REMARK  131  A    between atoms: _328  and  _329
REMARK  132  A    between atoms: _328  and  _331
REMARK  133  A    between atoms: _331  and  _332
REMARK  134  A    between atoms: _335  and  _337
REMARK  135  A    between atoms: _337  and  _338
REMARK  136  A    between atoms: _337  and  _340
REMARK  137  A    between atoms: _340  and  _341
REMARK  138  A    between atoms: _344  and  _346
REMARK  139  A    between atoms: _346  and  _347
REMARK  140  A    between atoms: _346  and  _349
REMARK  141  A    between atoms: _349  and  _350
REMARK  142  A    between atoms: _353  and  _355
REMARK  143  A    between atoms: _355  and  _356
REMARK  144  A    between atoms: _355  and  _358
REMARK  145  A    between atoms: _358  and  _359
REMARK  146  A    between atoms: _362  and  _364
REMARK  147  A    between atoms: _364  and  _365
REMARK  148  A    between atoms: _367  and  _369
REMARK  149  A    between atoms: _369  and  _370
REMARK  150  A    between atoms: _373  and  _375
REMARK  151  A    between atoms: _375  and  _376
REMARK  152  A    between atoms: _375  and  _378
REMARK  153  A    between atoms: _378  and  _379
REMARK  154  A    between atoms: _382  and  _384
REMARK  155  A    between atoms: _384  and  _385
REMARK  156  A    between atoms: _384  and  _387
REMARK  157  A    between atoms: _387  and  _388
REMARK  158  A    between atoms: _391  and  _393
REMARK  159  A    between atoms: _393  and  _394
REMARK  160  A    between atoms: _393  and  _396
REMARK  161  A    between atoms: _396  and  _397
REMARK  162  A    between atoms: _400  and  _402
REMARK  163  A    between atoms: _402  and  _403
REMARK  164  A    between atoms: _402  and  _405
REMARK  165  A    between atoms: _408  and  _410
REMARK  166  A    between atoms: _410  and  _411
REMARK  167  A    between atoms: _410  and  _413
REMARK  168  A    between atoms: _413  and  _414
REMARK  169  A    between atoms: _414  and  _415
REMARK  170  A    between atoms: _415  and  _416
REMARK  171  A    between atoms: _416  and  _417
REMARK  172  A    between atoms: _421  and  _423
REMARK  173  A    between atoms: _423  and  _424
REMARK  174  A    between atoms: _423  and  _426
REMARK  175  A    between atoms: _426  and  _427
REMARK  176  A    between atoms: _427  and  _428
REMARK  177  A    between atoms: _430  and  _432
REMARK  178  A    between atoms: _432  and  _433
REMARK  179  A    between atoms: _432  and  _435
REMARK  180  A    between atoms: _435  and  _436
REMARK  181  A    between atoms: _439  and  _441
REMARK  182  A    between atoms: _441  and  _442
REMARK  183  A    between atoms: _444  and  _446
REMARK  184  A    between atoms: _446  and  _447
REMARK  185  A    between atoms: _449  and  _451
REMARK  186  A    between atoms: _451  and  _452
REMARK  187  A    between atoms: _451  and  _454
REMARK  188  A    between atoms: _454  and  _455
REMARK  189  A    between atoms: _458  and  _460
REMARK  190  A    between atoms: _460  and  _461
REMARK  191  A    between atoms: _463  and  _465
REMARK  192  A    between atoms: _465  and  _466
REMARK  193  A    between atoms: _468  and  _470
REMARK  194  A    between atoms: _470  and  _471
REMARK  195  A    between atoms: _470  and  _473
REMARK  196  A    between atoms: _473  and  _474
REMARK  197  A    between atoms: _480  and  _482
REMARK  198  A    between atoms: _482  and  _483
REMARK  199  A    between atoms: _482  and  _485
REMARK  200  A    between atoms: _485  and  _486
REMARK  201  A    between atoms: _489  and  _491
REMARK  202  A    between atoms: _491  and  _492
REMARK  203  A    between atoms: _491  and  _494
REMARK  204  A    between atoms: _497  and  _499
REMARK  205  A    between atoms: _499  and  _500
REMARK  206  A    between atoms: _499  and  _502
REMARK  207  A    between atoms: _502  and  _503
REMARK  208  A    between atoms: _507  and  _508
REMARK  209  A    between atoms: _513  and  _515
REMARK  210  A    between atoms: _515  and  _516
REMARK  211  A    between atoms: _515  and  _518
REMARK  212  A    between atoms: _518  and  _519
REMARK  213  A    between atoms: _523  and  _524
REMARK  214  A    between atoms: _529  and  _531
REMARK  215  A    between atoms: _531  and  _532
REMARK  216  A    between atoms: _531  and  _534
REMARK  217  A    between atoms: _537  and  _539
REMARK  218  A    between atoms: _539  and  _540
REMARK  219  A    between atoms: _539  and  _542
REMARK  220  A    between atoms: _542  and  _543
REMARK  221  A    between atoms: _548  and  _550
REMARK  222  A    between atoms: _550  and  _551
REMARK  223  A    between atoms: _550  and  _553
REMARK  224  A    between atoms: _556  and  _558
REMARK  225  A    between atoms: _558  and  _559
REMARK  226  A    between atoms: _558  and  _561
REMARK  227  A    between atoms: _561  and  _562
REMARK  228  A    between atoms: _565  and  _567
REMARK  229  A    between atoms: _567  and  _568
REMARK  230  A    between atoms: _570  and  _572
REMARK  231  A    between atoms: _572  and  _573
REMARK  232  A    between atoms: _572  and  _575
REMARK  233  A    between atoms: _575  and  _576
REMARK  234  A    between atoms: _576  and  _577
REMARK  235  A    between atoms: _577  and  _578
REMARK  236  A    between atoms: _587  and  _589
REMARK  237  A    between atoms: _589  and  _590
REMARK  238  A    between atoms: _589  and  _592
REMARK  239  A    between atoms: _592  and  _593
REMARK                            x       y       z     vdW  Elec       q    Type
REMARK                         _______ _______ _______ _____ _____    ______ ____
ROOT
ATOM      1  CA  GLU A   1       6.000  28.430   6.312  0.00  0.00    +0.156 C 
ENDROOT
BRANCH   1   2
ATOM      2  N   GLU A   1       6.351  28.593   4.924  0.00  0.00    -0.235 NA
ATOM      3  H   GLU A   1       6.512  27.743   4.347  0.00  0.00    +0.142 HD
ENDBRANCH   1   2
BRANCH   1   4
ATOM      4  C   GLU A   1       7.259  28.255   7.161  0.00  0.00    +0.229 C 
ATOM      5  O   GLU A   1       8.152  27.559   6.703  0.00  0.00    -0.286 OA
ENDBRANCH   1   4
BRANCH   1   6
ATOM      6  CB  GLU A   1       5.133  27.206   6.486  0.00  0.00    +0.005 C 
ATOM      7  CG  GLU A   1       4.690  26.687   7.793  0.00  0.00    +0.083 C 
BRANCH   7   8
ATOM      8  CD  GLU A   1       3.842  25.424   7.801  0.00  0.00    +0.388 C 
ATOM      9  OE2 GLU A   1       4.361  24.274   7.843  0.00  0.00    -0.241 OA
ATOM     10  OE1 GLU A   1       2.606  25.567   7.815  0.00  0.00    -0.241 OA
ENDBRANCH   7   8
ENDBRANCH   1   6
TORSDOF 4
REMARK  Name = ../refined-set-2016/2aoc/2aoc_pocket.pdb
REMARK  239 active torsions:
REMARK  status: ('A' for Active; 'I' for Inactive)
REMARK    1  A    between atoms: _1  and  _3
REMARK    2  A    between atoms: _3  and  _4
REMARK    3  A    between atoms: _3  and  _6
REMARK    4  A    between atoms: _6  and  _7
REMARK    5  A    between atoms: _7  and  _8
REMARK    6  A    between atoms: _8  and  _9
REMARK    7  A    between atoms: _18  and  _20
REMARK    8  A    between atoms: _20  and  _21
REMARK    9  A    between atoms: _20  and  _23
REMARK   10  A    between atoms: _23  and  _24
REMARK   11  A    between atoms: _27  and  _29
REMARK   12  A    between atoms: _29  and  _30
REMARK   13  A    between atoms: _29  and  _32
REMARK   14  A    between atoms: _33  and  _34
REMARK   15  A    between atoms: _37  and  _39
REMARK   16  A    between atoms: _39  and  _40
REMARK   17  A    between atoms: _39  and  _42
REMARK   18  A    between atoms: _42  and  _43
REMARK   19  A    between atoms: _46  and  _48
REMARK   20  A    between atoms: _48  and  _49
REMARK   21  A    between atoms: _48  and  _51
REMARK   22  A    between atoms: _51  and  _52
REMARK   23  A    between atoms: _55  and  _57
REMARK   24  A    between atoms: _57  and  _58
REMARK   25  A    between atoms: _57  and  _60
REMARK   26  A    between atoms: _60  and  _61
REMARK   27  A    between atoms: _64  and  _66
REMARK   28  A    between atoms: _66  and  _67
REMARK   29  A    between atoms: _66  and  _69
REMARK   30  A    between atoms: _69  and  _70
REMARK   31  A    between atoms: _73  and  _75
REMARK   32  A    between atoms: _75  and  _76
REMARK   33  A    between atoms: _78  and  _80
REMARK   34  A    between atoms: _80  and  _81
REMARK   35  A    between atoms: _84  and  _86
REMARK   36  A    between atoms: _86  and  _87
REMARK   37  A    between atoms: _86  and  _89
REMARK   38  A    between atoms: _89  and  _90
REMARK   39  A    between atoms: _93  and  _95
REMARK   40  A    between atoms: _95  and  _96
REMARK   41  A    between atoms: _95  and  _98
REMARK   42  A    between atoms: _98  and  _99
REMARK   43  A    between atoms: _102  and  _104
REMARK   44  A    between atoms: _104  and  _105
REMARK   45  A    between atoms: _104  and  _107
REMARK   46  A    between atoms: _107  and  _108
REMARK   47  A    between atoms: _111  and  _113
REMARK   48  A    between atoms: _113  and  _114
REMARK   49  A    between atoms: _113  and  _116
REMARK   50  A    between atoms: _119  and  _121
REMARK   51  A    between atoms: _121  and  _122
REMARK   52  A    between atoms: _121  and  _124
REMARK   53  A    between atoms: _124  and  _125
REMARK   54  A    between atoms: _125  and  _126
REMARK   55  A    between atoms: _126  and  _127
REMARK   56  A    between atoms: _127  and  _128
REMARK   57  A    between atoms: _132  and  _134
REMARK   58  A    between atoms: _134  and  _135
REMARK   59  A    between atoms: _134  and  _137
REMARK   60  A    between atoms: _137  and  _138
REMARK   61  A    between atoms: _138  and  _139
REMARK   62  A    between atoms: _141  and  _143
REMARK   63  A    between atoms: _143  and  _144
REMARK   64  A    between atoms: _143  and  _146
REMARK   65  A    between atoms: _146  and  _147
REMARK   66  A    between atoms: _150  and  _152
REMARK   67  A    between atoms: _152  and  _153
REMARK   68  A    between atoms: _155  and  _157
REMARK   69  A    between atoms: _157  and  _158
REMARK   70  A    between atoms: _160  and  _162
REMARK   71  A    between atoms: _162  and  _163
REMARK   72  A    between atoms: _162  and  _165
REMARK   73  A    between atoms: _165  and  _166
REMARK   74  A    between atoms: _169  and  _171
REMARK   75  A    between atoms: _171  and  _172
REMARK   76  A    between atoms: _174  and  _176
REMARK   77  A    between atoms: _176  and  _177
REMARK   78  A    between atoms: _179  and  _181
REMARK   79  A    between atoms: _181  and  _182
REMARK   80  A    between atoms: _181  and  _184
REMARK   81  A    between atoms: _184  and  _185
REMARK   82  A    between atoms: _191  and  _193
REMARK   83  A    between atoms: _193  and  _194
REMARK   84  A    between atoms: _193  and  _196
REMARK   85  A    between atoms: _196  and  _197
REMARK   86  A    between atoms: _200  and  _202
REMARK   87  A    between atoms: _202  and  _203
REMARK   88  A    between atoms: _202  and  _205
REMARK   89  A    between atoms: _208  and  _210
REMARK   90  A    between atoms: _210  and  _211
REMARK   91  A    between atoms: _210  and  _213
REMARK   92  A    between atoms: _213  and  _214
REMARK   93  A    between atoms: _218  and  _219
REMARK   94  A    between atoms: _224  and  _226
REMARK   95  A    between atoms: _226  and  _227
REMARK   96  A    between atoms: _226  and  _229
REMARK   97  A    between atoms: _229  and  _230
REMARK   98  A    between atoms: _234  and  _235
REMARK   99  A    between atoms: _240  and  _242
REMARK  100  A    between atoms: _242  and  _243
REMARK  101  A    between atoms: _242  and  _245
REMARK  102  A    between atoms: _248  and  _250
REMARK  103  A    between atoms: _250  and  _251
REMARK  104  A    between atoms: _250  and  _253
REMARK  105  A    between atoms: _253  and  _254
REMARK  106  A    between atoms: _259  and  _261
REMARK  107  A    between atoms: _261  and  _262
REMARK  108  A    between atoms: _261  and  _264
REMARK  109  A    between atoms: _267  and  _269
REMARK  110  A    between atoms: _269  and  _270
REMARK  111  A    between atoms: _269  and  _272
REMARK  112  A    between atoms: _272  and  _273
REMARK  113  A    between atoms: _276  and  _278
REMARK  114  A    between atoms: _278  and  _279
REMARK  115  A    between atoms: _281  and  _283
REMARK  116  A    between atoms: _283  and  _284
REMARK  117  A    between atoms: _283  and  _286
REMARK  118  A    between atoms: _287  and  _288
REMARK  119  A    between atoms: _288  and  _289
REMARK  120  A    between atoms: _298  and  _300
REMARK  121  A    between atoms: _300  and  _301
REMARK  122  A    between atoms: _300  and  _303
REMARK  123  A    between atoms: _303  and  _304
REMARK  124  A    between atoms: _309  and  _311
REMARK  125  A    between atoms: _311  and  _312
REMARK  126  A    between atoms: _311  and  _314
REMARK  127  A    between atoms: _314  and  _315
REMARK  128  A    between atoms: _315  and  _316
REMARK  129  A    between atoms: _316  and  _317
REMARK  130  A    between atoms: _326  and  _328
REMARK  131  A    between atoms: _328  and  _329
REMARK  132  A    between atoms: _328  and  _331
REMARK  133  A    between atoms: _331  and  _332
REMARK  134  A    between atoms: _335  and  _337
REMARK  135  A    between atoms: _337  and  _338
REMARK  136  A    between atoms: _337  and  _340
REMARK  137  A    between atoms: _340  and  _341
REMARK  138  A    between atoms: _344  and  _346
REMARK  139  A    between atoms: _346  and  _347
REMARK  140  A    between atoms: _346  and  _349
REMARK  141  A    between atoms: _349  and  _350
REMARK  142  A    between atoms: _353  and  _355
REMARK  143  A    between atoms: _355  and  _356
REMARK  144  A    between atoms: _355  and  _358
REMARK  145  A    between atoms: _358  and  _359
REMARK  146  A    between atoms: _362  and  _364
REMARK  147  A    between atoms: _364  and  _365
REMARK  148  A    between atoms: _367  and  _369
REMARK  149  A    between atoms: _369  and  _370
REMARK  150  A    between atoms: _373  and  _375
REMARK  151  A    between atoms: _375  and  _376
REMARK  152  A    between atoms: _375  and  _378
REMARK  153  A    between atoms: _378  and  _379
REMARK  154  A    between atoms: _382  and  _384
REMARK  155  A    between atoms: _384  and  _385
REMARK  156  A    between atoms: _384  and  _387
REMARK  157  A    between atoms: _387  and  _388
REMARK  158  A    between atoms: _391  and  _393
REMARK  159  A    between atoms: _393  and  _394
REMARK  160  A    between atoms: _393  and  _396
REMARK  161  A    between atoms: _396  and  _397
REMARK  162  A    between atoms: _400  and  _402
REMARK  163  A    between atoms: _402  and  _403
REMARK  164  A    between atoms: _402  and  _405
REMARK  165  A    between atoms: _408  and  _410
REMARK  166  A    between atoms: _410  and  _411
REMARK  167  A    between atoms: _410  and  _413
REMARK  168  A    between atoms: _413  and  _414
REMARK  169  A    between atoms: _414  and  _415
REMARK  170  A    between atoms: _415  and  _416
REMARK  171  A    between atoms: _416  and  _417
REMARK  172  A    between atoms: _421  and  _423
REMARK  173  A    between atoms: _423  and  _424
REMARK  174  A    between atoms: _423  and  _426
REMARK  175  A    between atoms: _426  and  _427
REMARK  176  A    between atoms: _427  and  _428
REMARK  177  A    between atoms: _430  and  _432
REMARK  178  A    between atoms: _432  and  _433
REMARK  179  A    between atoms: _432  and  _435
REMARK  180  A    between atoms: _435  and  _436
REMARK  181  A    between atoms: _439  and  _441
REMARK  182  A    between atoms: _441  and  _442
REMARK  183  A    between atoms: _444  and  _446
REMARK  184  A    between atoms: _446  and  _447
REMARK  185  A    between atoms: _449  and  _451
REMARK  186  A    between atoms: _451  and  _452
REMARK  187  A    between atoms: _451  and  _454
REMARK  188  A    between atoms: _454  and  _455
REMARK  189  A    between atoms: _458  and  _460
REMARK  190  A    between atoms: _460  and  _461
REMARK  191  A    between atoms: _463  and  _465
REMARK  192  A    between atoms: _465  and  _466
REMARK  193  A    between atoms: _468  and  _470
REMARK  194  A    between atoms: _470  and  _471
REMARK  195  A    between atoms: _470  and  _473
REMARK  196  A    between atoms: _473  and  _474
REMARK  197  A    between atoms: _480  and  _482
REMARK  198  A    between atoms: _482  and  _483
REMARK  199  A    between atoms: _482  and  _485
REMARK  200  A    between atoms: _485  and  _486
REMARK  201  A    between atoms: _489  and  _491
REMARK  202  A    between atoms: _491  and  _492
REMARK  203  A    between atoms: _491  and  _494
REMARK  204  A    between atoms: _497  and  _499
REMARK  205  A    between atoms: _499  and  _500
REMARK  206  A    between atoms: _499  and  _502
REMARK  207  A    between atoms: _502  and  _503
REMARK  208  A    between atoms: _507  and  _508
REMARK  209  A    between atoms: _513  and  _515
REMARK  210  A    between atoms: _515  and  _516
REMARK  211  A    between atoms: _515  and  _518
REMARK  212  A    between atoms: _518  and  _519
REMARK  213  A    between atoms: _523  and  _524
REMARK  214  A    between atoms: _529  and  _531
REMARK  215  A    between atoms: _531  and  _532
REMARK  216  A    between atoms: _531  and  _534
REMARK  217  A    between atoms: _537  and  _539
REMARK  218  A    between atoms: _539  and  _540
REMARK  219  A    between atoms: _539  and  _542
REMARK  220  A    between atoms: _542  and  _543
REMARK  221  A    between atoms: _548  and  _550
REMARK  222  A    between atoms: _550  and  _551
REMARK  223  A    between atoms: _550  and  _553
REMARK  224  A    between atoms: _556  and  _558
REMARK  225  A    between atoms: _558  and  _559
REMARK  226  A    between atoms: _558  and  _561
REMARK  227  A    between atoms: _561  and  _562
REMARK  228  A    between atoms: _565  and  _567
REMARK  229  A    between atoms: _567  and  _568
REMARK  230  A    between atoms: _570  and  _572
REMARK  231  A    between atoms: _572  and  _573
REMARK  232  A    between atoms: _572  and  _575
REMARK  233  A    between atoms: _575  and  _576
REMARK  234  A    between atoms: _576  and  _577
REMARK  235  A    between atoms: _577  and  _578
REMARK  236  A    between atoms: _587  and  _589
REMARK  237  A    between atoms: _589  and  _590
REMARK  238  A    between atoms: _589  and  _592
REMARK  239  A    between atoms: _592  and  _593
REMARK                            x       y       z     vdW  Elec       q    Type
REMARK                         _______ _______ _______ _____ _____    ______ ____
ROOT
ATOM      1  C   GLY A   5      16.915  28.076  19.724  0.00  0.00    +0.243 C 
ATOM      2  O   GLY A   5      17.904  27.317  19.796  0.00  0.00    -0.273 OA
ATOM      3  N   ALA A   6      16.705  28.895  18.694  0.00  0.00    -0.297 N 
ATOM      4  H   ALA A   6      15.864  29.507  18.696  0.00  0.00    +0.150 HD
ENDROOT
BRANCH   3   5
ATOM      5  CA  ALA A   6      17.622  28.954  17.567  0.00  0.00    +0.149 C 
ATOM      6  CB  ALA A   6      16.861  28.759  16.259  0.00  0.00    +0.031 C 
BRANCH   5   7
ATOM      7  C   ALA A   6      18.318  30.297  17.556  0.00  0.00    +0.241 C 
ATOM      8  O   ALA A   6      17.685  31.350  17.569  0.00  0.00    -0.273 OA
ATOM      9  N   ASP A   7      19.662  30.258  17.507  0.00  0.00    -0.297 N 
ATOM     10  H   ASP A   7      20.161  29.346  17.526  0.00  0.00    +0.150 HD
BRANCH   9  11
ATOM     11  CA  ASP A   7      20.408  31.495  17.427  0.00  0.00    +0.160 C 
BRANCH  11  12
ATOM     12  C   ASP A   7      20.190  32.167  16.073  0.00  0.00    +0.241 C 
ATOM     13  O   ASP A   7      20.186  33.405  15.996  0.00  0.00    -0.273 OA
ATOM     14  N   ASP A   8      20.065  31.387  15.029  0.00  0.00    -0.297 N 
ATOM     15  H   ASP A   8      19.933  30.372  15.215  0.00  0.00    +0.150 HD
BRANCH  14  16
ATOM     16  CA  ASP A   8      20.093  31.799  13.641  0.00  0.00    +0.160 C 
BRANCH  16  17
ATOM     17  C   ASP A   8      18.815  31.338  12.931  0.00  0.00    +0.241 C 
ATOM     18  O   ASP A   8      18.086  30.470  13.419  0.00  0.00    -0.273 OA
ATOM     19  N   THR A   9      18.564  31.920  11.779  0.00  0.00    -0.295 N 
ATOM     20  H   THR A   9      19.214  32.673  11.475  0.00  0.00    +0.150 HD
BRANCH  19  21
ATOM     21  CA  THR A   9      17.459  31.601  10.898  0.00  0.00    +0.176 C 
BRANCH  21  22
ATOM     22  C   THR A   9      17.951  30.679   9.791  0.00  0.00    +0.243 C 
ATOM     23  N   VAL A  10      17.224  29.590   9.585  0.00  0.00    -0.298 N 
ATOM     24  H   VAL A  10      16.322  29.488  10.092  0.00  0.00    +0.150 HD
ATOM     25  O   THR A   9      18.967  30.972   9.144  0.00  0.00    -0.273 OA
BRANCH  23  26
ATOM     26  CA  VAL A  10      17.637  28.540   8.684  0.00  0.00    +0.137 C 
BRANCH  26  27
ATOM     27  CB  VAL A  10      18.155  27.275   9.420  0.00  0.00    +0.026 C 
ATOM     28  CG2 VAL A  10      18.977  27.652  10.666  0.00  0.00    +0.002 C 
ATOM     29  CG1 VAL A  10      18.867  26.401   8.385  0.00  0.00    +0.002 C 
ENDBRANCH  26  27
BRANCH  26  30
ATOM     30  C   VAL A  10      16.452  28.165   7.780  0.00  0.00    +0.227 C 
ATOM     31  O   VAL A  10      15.384  27.792   8.271  0.00  0.00    -0.286 OA
ENDBRANCH  26  30
ENDBRANCH  23  26
ENDBRANCH  21  22
BRANCH  21  32
ATOM     32  CB  THR A   9      16.919  32.938  10.350  0.00  0.00    +0.137 C 
ATOM     33  CG2 THR A   9      15.861  32.752   9.286  0.00  0.00    +0.034 C 
BRANCH  32  34
ATOM     34  OG1 THR A   9      16.350  33.678  11.460  0.00  0.00    -0.382 OA
ATOM     35  HG1 THR A   9      17.051  33.844  12.139  0.00  0.00    +0.210 HD
ENDBRANCH  32  34
ENDBRANCH  21  32
ENDBRANCH  19  21
ENDBRANCH  16  17
BRANCH  16  36
ATOM     36  CB  ASP A   8      21.258  31.132  12.932  0.00  0.00    +0.143 C 
BRANCH  36  37
ATOM     37  CG  ASP A   8      22.626  31.338  13.529  0.00  0.00    +0.367 C 
ATOM     38  OD2 ASP A   8      22.850  32.453  14.055  0.00  0.00    -0.246 OA
ATOM     39  OD1 ASP A   8      23.455  30.406  13.440  0.00  0.00    -0.246 OA
ENDBRANCH  36  37
ENDBRANCH  16  36
ENDBRANCH  14  16
ENDBRANCH  11  12
BRANCH  11  40
ATOM     40  CB  ASP A   7      21.907  31.253  17.586  0.00  0.00    +0.143 C 
BRANCH  40  41
ATOM     41  CG  ASP A   7      22.399  30.763  18.936  0.00  0.00    +0.367 C 
ATOM     42  OD2 ASP A   7      21.637  30.732  19.916  0.00  0.00    -0.246 OA
ATOM     43  OD1 ASP A   7      23.597  30.395  18.953  0.00  0.00    -0.246 OA
ENDBRANCH  40  41
ENDBRANCH  11  40
ENDBRANCH   9  11
ENDBRANCH   5   7
ENDBRANCH   3   5
BRANCH   1  44
ATOM     44  CA  GLY A   5      15.926  28.106  20.855  0.00  0.00    +0.176 C 
BRANCH  44  47
ATOM     45  C   THR A   4      14.708  30.209  20.910  0.00  0.00    +0.243 C 
ATOM     46  O   THR A   4      15.634  30.816  21.440  0.00  0.00    -0.273 OA
ATOM     47  N   GLY A   5      14.765  28.913  20.619  0.00  0.00    -0.295 N 
ATOM     48  H   GLY A   5      13.926  28.463  20.200  0.00  0.00    +0.150 HD
BRANCH  45  49
ATOM     49  CA  THR A   4      13.440  30.968  20.518  0.00  0.00    +0.176 C 
BRANCH  49  51
ATOM     50  C   ASP A   3      13.109  29.966  18.329  0.00  0.00    +0.241 C 
ATOM     51  N   THR A   4      12.640  30.225  19.560  0.00  0.00    -0.295 N 
ATOM     52  H   THR A   4      11.693  29.890  19.831  0.00  0.00    +0.150 HD
ATOM     53  O   ASP A   3      14.207  30.365  17.959  0.00  0.00    -0.273 OA
BRANCH  50  54
ATOM     54  CA  ASP A   3      12.195  29.144  17.447  0.00  0.00    +0.160 C 
BRANCH  54  57
ATOM     55  C   LEU A   2      10.061  29.954  16.526  0.00  0.00    +0.241 C 
ATOM     56  O   LEU A   2       9.387  29.321  17.350  0.00  0.00    -0.273 OA
ATOM     57  N   ASP A   3      11.404  29.989  16.555  0.00  0.00    -0.297 N 
ATOM     58  H   ASP A   3      11.900  30.644  15.917  0.00  0.00    +0.150 HD
BRANCH  55  59
ATOM     59  CA  LEU A   2       9.364  30.681  15.410  0.00  0.00    +0.149 C 
BRANCH  59  61
ATOM     60  C   LEU A   1       9.427  28.990  13.648  0.00  0.00    +0.238 C 
ATOM     61  N   LEU A   2       8.714  29.674  14.538  0.00  0.00    -0.297 N 
ATOM     62  H   LEU A   2       7.692  29.501  14.623  0.00  0.00    +0.150 HD
ATOM     63  O   LEU A   1      10.614  29.226  13.446  0.00  0.00    -0.274 OA
BRANCH  60  64
ATOM     64  CA  LEU A   1       8.719  27.884  12.884  0.00  0.00    +0.145 C 
BRANCH  64  65
ATOM     65  N   LEU A   1       8.856  28.061  11.440  0.00  0.00    -0.238 NA
ATOM     66  H   LEU A   1       9.691  27.641  10.984  0.00  0.00    +0.142 HD
ENDBRANCH  64  65
BRANCH  64  67
ATOM     67  CB  LEU A   1       9.337  26.526  13.225  0.00  0.00    +0.026 C 
BRANCH  67  68
ATOM     68  CG  LEU A   1       9.267  26.082  14.686  0.00  0.00    +0.002 C 
ATOM     69  CD2 LEU A   1       7.867  25.750  15.088  0.00  0.00    +0.000 C 
ATOM     70  CD1 LEU A   1      10.189  24.879  14.858  0.00  0.00    +0.000 C 
ENDBRANCH  67  68
ENDBRANCH  64  67
ENDBRANCH  60  64
ENDBRANCH  59  61
BRANCH  59  71
ATOM     71  CB  LEU A   2       8.309  31.626  15.911  0.00  0.00    +0.029 C 
BRANCH  71  72
ATOM     72  CG  LEU A   2       7.482  32.360  14.861  0.00  0.00    +0.002 C 
ATOM     73  CD2 LEU A   2       6.530  33.316  15.564  0.00  0.00    +0.000 C 
ATOM     74  CD1 LEU A   2       8.368  33.096  13.879  0.00  0.00    +0.000 C 
ENDBRANCH  71  72
ENDBRANCH  59  71
ENDBRANCH  55  59
ENDBRANCH  54  57
BRANCH  54  75
ATOM     75  CB  ASP A   3      13.015  28.142  16.612  0.00  0.00    +0.143 C 
BRANCH  75  76
ATOM     76  CG  ASP A   3      13.745  27.079  17.398  0.00  0.00    +0.367 C 
ATOM     77  OD2 ASP A   3      13.550  27.043  18.654  0.00  0.00    -0.246 OA
ATOM     78  OD1 ASP A   3      14.521  26.312  16.761  0.00  0.00    -0.246 OA
ENDBRANCH  75  76
ENDBRANCH  54  75
ENDBRANCH  50  54
ENDBRANCH  49  51
BRANCH  49  79
ATOM     79  CB  THR A   4      12.624  31.334  21.753  0.00  0.00    +0.137 C 
ATOM     80  CG2 THR A   4      11.445  32.237  21.439  0.00  0.00    +0.034 C 
BRANCH  79  81
ATOM     81  OG1 THR A   4      12.146  30.145  22.394  0.00  0.00    -0.382 OA
ATOM     82  HG1 THR A   4      12.916  29.586  22.666  0.00  0.00    +0.210 HD
ENDBRANCH  79  81
ENDBRANCH  49  79
ENDBRANCH  45  49
ENDBRANCH  44  47
ENDBRANCH   1  44
TORSDOF 35
REMARK  Name = ../refined-set-2016/2aoc/2aoc_pocket.pdb
REMARK  239 active torsions:
REMARK  status: ('A' for Active; 'I' for Inactive)
REMARK    1  A    between atoms: _1  and  _3
REMARK    2  A    between atoms: _3  and  _4
REMARK    3  A    between atoms: _3  and  _6
REMARK    4  A    between atoms: _6  and  _7
REMARK    5  A    between atoms: _7  and  _8
REMARK    6  A    between atoms: _8  and  _9
REMARK    7  A    between atoms: _18  and  _20
REMARK    8  A    between atoms: _20  and  _21
REMARK    9  A    between atoms: _20  and  _23
REMARK   10  A    between atoms: _23  and  _24
REMARK   11  A    between atoms: _27  and  _29
REMARK   12  A    between atoms: _29  and  _30
REMARK   13  A    between atoms: _29  and  _32
REMARK   14  A    between atoms: _33  and  _34
REMARK   15  A    between atoms: _37  and  _39
REMARK   16  A    between atoms: _39  and  _40
REMARK   17  A    between atoms: _39  and  _42
REMARK   18  A    between atoms: _42  and  _43
REMARK   19  A    between atoms: _46  and  _48
REMARK   20  A    between atoms: _48  and  _49
REMARK   21  A    between atoms: _48  and  _51
REMARK   22  A    between atoms: _51  and  _52
REMARK   23  A    between atoms: _55  and  _57
REMARK   24  A    between atoms: _57  and  _58
REMARK   25  A    between atoms: _57  and  _60
REMARK   26  A    between atoms: _60  and  _61
REMARK   27  A    between atoms: _64  and  _66
REMARK   28  A    between atoms: _66  and  _67
REMARK   29  A    between atoms: _66  and  _69
REMARK   30  A    between atoms: _69  and  _70
REMARK   31  A    between atoms: _73  and  _75
REMARK   32  A    between atoms: _75  and  _76
REMARK   33  A    between atoms: _78  and  _80
REMARK   34  A    between atoms: _80  and  _81
REMARK   35  A    between atoms: _84  and  _86
REMARK   36  A    between atoms: _86  and  _87
REMARK   37  A    between atoms: _86  and  _89
REMARK   38  A    between atoms: _89  and  _90
REMARK   39  A    between atoms: _93  and  _95
REMARK   40  A    between atoms: _95  and  _96
REMARK   41  A    between atoms: _95  and  _98
REMARK   42  A    between atoms: _98  and  _99
REMARK   43  A    between atoms: _102  and  _104
REMARK   44  A    between atoms: _104  and  _105
REMARK   45  A    between atoms: _104  and  _107
REMARK   46  A    between atoms: _107  and  _108
REMARK   47  A    between atoms: _111  and  _113
REMARK   48  A    between atoms: _113  and  _114
REMARK   49  A    between atoms: _113  and  _116
REMARK   50  A    between atoms: _119  and  _121
REMARK   51  A    between atoms: _121  and  _122
REMARK   52  A    between atoms: _121  and  _124
REMARK   53  A    between atoms: _124  and  _125
REMARK   54  A    between atoms: _125  and  _126
REMARK   55  A    between atoms: _126  and  _127
REMARK   56  A    between atoms: _127  and  _128
REMARK   57  A    between atoms: _132  and  _134
REMARK   58  A    between atoms: _134  and  _135
REMARK   59  A    between atoms: _134  and  _137
REMARK   60  A    between atoms: _137  and  _138
REMARK   61  A    between atoms: _138  and  _139
REMARK   62  A    between atoms: _141  and  _143
REMARK   63  A    between atoms: _143  and  _144
REMARK   64  A    between atoms: _143  and  _146
REMARK   65  A    between atoms: _146  and  _147
REMARK   66  A    between atoms: _150  and  _152
REMARK   67  A    between atoms: _152  and  _153
REMARK   68  A    between atoms: _155  and  _157
REMARK   69  A    between atoms: _157  and  _158
REMARK   70  A    between atoms: _160  and  _162
REMARK   71  A    between atoms: _162  and  _163
REMARK   72  A    between atoms: _162  and  _165
REMARK   73  A    between atoms: _165  and  _166
REMARK   74  A    between atoms: _169  and  _171
REMARK   75  A    between atoms: _171  and  _172
REMARK   76  A    between atoms: _174  and  _176
REMARK   77  A    between atoms: _176  and  _177
REMARK   78  A    between atoms: _179  and  _181
REMARK   79  A    between atoms: _181  and  _182
REMARK   80  A    between atoms: _181  and  _184
REMARK   81  A    between atoms: _184  and  _185
REMARK   82  A    between atoms: _191  and  _193
REMARK   83  A    between atoms: _193  and  _194
REMARK   84  A    between atoms: _193  and  _196
REMARK   85  A    between atoms: _196  and  _197
REMARK   86  A    between atoms: _200  and  _202
REMARK   87  A    between atoms: _202  and  _203
REMARK   88  A    between atoms: _202  and  _205
REMARK   89  A    between atoms: _208  and  _210
REMARK   90  A    between atoms: _210  and  _211
REMARK   91  A    between atoms: _210  and  _213
REMARK   92  A    between atoms: _213  and  _214
REMARK   93  A    between atoms: _218  and  _219
REMARK   94  A    between atoms: _224  and  _226
REMARK   95  A    between atoms: _226  and  _227
REMARK   96  A    between atoms: _226  and  _229
REMARK   97  A    between atoms: _229  and  _230
REMARK   98  A    between atoms: _234  and  _235
REMARK   99  A    between atoms: _240  and  _242
REMARK  100  A    between atoms: _242  and  _243
REMARK  101  A    between atoms: _242  and  _245
REMARK  102  A    between atoms: _248  and  _250
REMARK  103  A    between atoms: _250  and  _251
REMARK  104  A    between atoms: _250  and  _253
REMARK  105  A    between atoms: _253  and  _254
REMARK  106  A    between atoms: _259  and  _261
REMARK  107  A    between atoms: _261  and  _262
REMARK  108  A    between atoms: _261  and  _264
REMARK  109  A    between atoms: _267  and  _269
REMARK  110  A    between atoms: _269  and  _270
REMARK  111  A    between atoms: _269  and  _272
REMARK  112  A    between atoms: _272  and  _273
REMARK  113  A    between atoms: _276  and  _278
REMARK  114  A    between atoms: _278  and  _279
REMARK  115  A    between atoms: _281  and  _283
REMARK  116  A    between atoms: _283  and  _284
REMARK  117  A    between atoms: _283  and  _286
REMARK  118  A    between atoms: _287  and  _288
REMARK  119  A    between atoms: _288  and  _289
REMARK  120  A    between atoms: _298  and  _300
REMARK  121  A    between atoms: _300  and  _301
REMARK  122  A    between atoms: _300  and  _303
REMARK  123  A    between atoms: _303  and  _304
REMARK  124  A    between atoms: _309  and  _311
REMARK  125  A    between atoms: _311  and  _312
REMARK  126  A    between atoms: _311  and  _314
REMARK  127  A    between atoms: _314  and  _315
REMARK  128  A    between atoms: _315  and  _316
REMARK  129  A    between atoms: _316  and  _317
REMARK  130  A    between atoms: _326  and  _328
REMARK  131  A    between atoms: _328  and  _329
REMARK  132  A    between atoms: _328  and  _331
REMARK  133  A    between atoms: _331  and  _332
REMARK  134  A    between atoms: _335  and  _337
REMARK  135  A    between atoms: _337  and  _338
REMARK  136  A    between atoms: _337  and  _340
REMARK  137  A    between atoms: _340  and  _341
REMARK  138  A    between atoms: _344  and  _346
REMARK  139  A    between atoms: _346  and  _347
REMARK  140  A    between atoms: _346  and  _349
REMARK  141  A    between atoms: _349  and  _350
REMARK  142  A    between atoms: _353  and  _355
REMARK  143  A    between atoms: _355  and  _356
REMARK  144  A    between atoms: _355  and  _358
REMARK  145  A    between atoms: _358  and  _359
REMARK  146  A    between atoms: _362  and  _364
REMARK  147  A    between atoms: _364  and  _365
REMARK  148  A    between atoms: _367  and  _369
REMARK  149  A    between atoms: _369  and  _370
REMARK  150  A    between atoms: _373  and  _375
REMARK  151  A    between atoms: _375  and  _376
REMARK  152  A    between atoms: _375  and  _378
REMARK  153  A    between atoms: _378  and  _379
REMARK  154  A    between atoms: _382  and  _384
REMARK  155  A    between atoms: _384  and  _385
REMARK  156  A    between atoms: _384  and  _387
REMARK  157  A    between atoms: _387  and  _388
REMARK  158  A    between atoms: _391  and  _393
REMARK  159  A    between atoms: _393  and  _394
REMARK  160  A    between atoms: _393  and  _396
REMARK  161  A    between atoms: _396  and  _397
REMARK  162  A    between atoms: _400  and  _402
REMARK  163  A    between atoms: _402  and  _403
REMARK  164  A    between atoms: _402  and  _405
REMARK  165  A    between atoms: _408  and  _410
REMARK  166  A    between atoms: _410  and  _411
REMARK  167  A    between atoms: _410  and  _413
REMARK  168  A    between atoms: _413  and  _414
REMARK  169  A    between atoms: _414  and  _415
REMARK  170  A    between atoms: _415  and  _416
REMARK  171  A    between atoms: _416  and  _417
REMARK  172  A    between atoms: _421  and  _423
REMARK  173  A    between atoms: _423  and  _424
REMARK  174  A    between atoms: _423  and  _426
REMARK  175  A    between atoms: _426  and  _427
REMARK  176  A    between atoms: _427  and  _428
REMARK  177  A    between atoms: _430  and  _432
REMARK  178  A    between atoms: _432  and  _433
REMARK  179  A    between atoms: _432  and  _435
REMARK  180  A    between atoms: _435  and  _436
REMARK  181  A    between atoms: _439  and  _441
REMARK  182  A    between atoms: _441  and  _442
REMARK  183  A    between atoms: _444  and  _446
REMARK  184  A    between atoms: _446  and  _447
REMARK  185  A    between atoms: _449  and  _451
REMARK  186  A    between atoms: _451  and  _452
REMARK  187  A    between atoms: _451  and  _454
REMARK  188  A    between atoms: _454  and  _455
REMARK  189  A    between atoms: _458  and  _460
REMARK  190  A    between atoms: _460  and  _461
REMARK  191  A    between atoms: _463  and  _465
REMARK  192  A    between atoms: _465  and  _466
REMARK  193  A    between atoms: _468  and  _470
REMARK  194  A    between atoms: _470  and  _471
REMARK  195  A    between atoms: _470  and  _473
REMARK  196  A    between atoms: _473  and  _474
REMARK  197  A    between atoms: _480  and  _482
REMARK  198  A    between atoms: _482  and  _483
REMARK  199  A    between atoms: _482  and  _485
REMARK  200  A    between atoms: _485  and  _486
REMARK  201  A    between atoms: _489  and  _491
REMARK  202  A    between atoms: _491  and  _492
REMARK  203  A    between atoms: _491  and  _494
REMARK  204  A    between atoms: _497  and  _499
REMARK  205  A    between atoms: _499  and  _500
REMARK  206  A    between atoms: _499  and  _502
REMARK  207  A    between atoms: _502  and  _503
REMARK  208  A    between atoms: _507  and  _508
REMARK  209  A    between atoms: _513  and  _515
REMARK  210  A    between atoms: _515  and  _516
REMARK  211  A    between atoms: _515  and  _518
REMARK  212  A    between atoms: _518  and  _519
REMARK  213  A    between atoms: _523  and  _524
REMARK  214  A    between atoms: _529  and  _531
REMARK  215  A    between atoms: _531  and  _532
REMARK  216  A    between atoms: _531  and  _534
REMARK  217  A    between atoms: _537  and  _539
REMARK  218  A    between atoms: _539  and  _540
REMARK  219  A    between atoms: _539  and  _542
REMARK  220  A    between atoms: _542  and  _543
REMARK  221  A    between atoms: _548  and  _550
REMARK  222  A    between atoms: _550  and  _551
REMARK  223  A    between atoms: _550  and  _553
REMARK  224  A    between atoms: _556  and  _558
REMARK  225  A    between atoms: _558  and  _559
REMARK  226  A    between atoms: _558  and  _561
REMARK  227  A    between atoms: _561  and  _562
REMARK  228  A    between atoms: _565  and  _567
REMARK  229  A    between atoms: _567  and  _568
REMARK  230  A    between atoms: _570  and  _572
REMARK  231  A    between atoms: _572  and  _573
REMARK  232  A    between atoms: _572  and  _575
REMARK  233  A    between atoms: _575  and  _576
REMARK  234  A    between atoms: _576  and  _577
REMARK  235  A    between atoms: _577  and  _578
REMARK  236  A    between atoms: _587  and  _589
REMARK  237  A    between atoms: _589  and  _590
REMARK  238  A    between atoms: _589  and  _592
REMARK  239  A    between atoms: _592  and  _593
REMARK                            x       y       z     vdW  Elec       q    Type
REMARK                         _______ _______ _______ _____ _____    ______ ____
ROOT
ATOM      1  C   GLY A   5      21.080  19.326  17.645  0.00  0.00    +0.243 C 
ATOM      2  N   ILE A   6      19.841  19.008  17.989  0.00  0.00    -0.297 N 
ATOM      3  H   ILE A   6      19.123  19.750  18.113  0.00  0.00    +0.150 HD
ATOM      4  O   GLY A   5      22.008  18.522  17.560  0.00  0.00    -0.273 OA
ENDROOT
BRANCH   1   5
ATOM      5  CA  GLY A   5      21.314  20.786  17.352  0.00  0.00    +0.176 C 
BRANCH   5   7
ATOM      6  C   GLY A   4      22.903  22.039  16.015  0.00  0.00    +0.243 C 
ATOM      7  N   GLY A   5      22.426  20.902  16.450  0.00  0.00    -0.295 N 
ATOM      8  H   GLY A   5      22.881  20.026  16.122  0.00  0.00    +0.150 HD
ATOM      9  O   GLY A   4      22.427  23.143  16.358  0.00  0.00    -0.273 OA
BRANCH   6  10
ATOM     10  CA  GLY A   4      24.081  21.901  15.091  0.00  0.00    +0.176 C 
BRANCH  10  12
ATOM     11  C   ILE A   3      24.604  23.154  13.104  0.00  0.00    +0.241 C 
ATOM     12  N   GLY A   4      24.418  23.130  14.406  0.00  0.00    -0.295 N 
ATOM     13  H   GLY A   4      24.515  24.010  14.952  0.00  0.00    +0.150 HD
ATOM     14  O   ILE A   3      24.357  22.195  12.366  0.00  0.00    -0.273 OA
BRANCH  11  15
ATOM     15  CA  ILE A   3      25.140  24.462  12.535  0.00  0.00    +0.149 C 
BRANCH  15  18
ATOM     16  C   MET A   2      27.250  24.676  11.355  0.00  0.00    +0.241 C 
ATOM     17  O   MET A   2      27.715  25.473  12.175  0.00  0.00    -0.273 OA
ATOM     18  N   ILE A   3      26.035  24.161  11.425  0.00  0.00    -0.297 N 
ATOM     19  H   ILE A   3      25.709  23.525  10.669  0.00  0.00    +0.150 HD
BRANCH  16  20
ATOM     20  CA  MET A   2      28.052  24.250  10.118  0.00  0.00    +0.149 C 
BRANCH  20  22
ATOM     21  C   LYS A   1      28.297  25.978   8.452  0.00  0.00    +0.238 C 
ATOM     22  N   MET A   2      28.654  25.460   9.594  0.00  0.00    -0.297 N 
ATOM     23  H   MET A   2      29.397  25.932  10.148  0.00  0.00    +0.150 HD
ATOM     24  O   LYS A   1      27.591  25.369   7.642  0.00  0.00    -0.274 OA
BRANCH  21  25
ATOM     25  CA  LYS A   1      28.748  27.379   8.099  0.00  0.00    +0.145 C 
BRANCH  25  26
ATOM     26  N   LYS A   1      28.870  27.453   6.654  0.00  0.00    -0.238 NA
ATOM     27  H   LYS A   1      28.221  26.899   6.060  0.00  0.00    +0.142 HD
ENDBRANCH  25  26
BRANCH  25  28
ATOM     28  CB  LYS A   1      27.780  28.453   8.631  0.00  0.00    +0.026 C 
BRANCH  28  29
ATOM     29  CG  LYS A   1      27.666  28.576  10.129  0.00  0.00    -0.000 C 
BRANCH  29  30
ATOM     30  CD  LYS A   1      26.913  29.801  10.603  0.00  0.00    -0.024 C 
BRANCH  30  31
ATOM     31  CE  LYS A   1      27.126  30.058  12.084  0.00  0.00    -0.086 C 
BRANCH  31  32
ATOM     32  NZ  LYS A   1      26.307  31.135  12.664  0.00  0.00    +0.380 N 
ATOM     33  HZ1 LYS A   1      26.527  31.230  13.676  0.00  0.00    -0.089 HD
ATOM     34  HZ2 LYS A   1      25.300  30.904  12.547  0.00  0.00    -0.089 HD
ATOM     35  HZ3 LYS A   1      26.517  32.029  12.177  0.00  0.00    -0.089 HD
ENDBRANCH  31  32
ENDBRANCH  30  31
ENDBRANCH  29  30
ENDBRANCH  28  29
ENDBRANCH  25  28
ENDBRANCH  21  25
ENDBRANCH  20  22
BRANCH  20  36
ATOM     36  CB  MET A   2      29.050  23.108  10.262  0.00  0.00    +0.041 C 
BRANCH  36  37
ATOM     37  CG  MET A   2      29.183  22.255   8.984  0.00  0.00    +0.060 C 
BRANCH  37  38
ATOM     38  SD  MET A   2      30.528  21.058   9.060  0.00  0.00    -0.139 S 
ATOM     39  CE  MET A   2      30.814  20.541   7.377  0.00  0.00    +0.069 C 
ENDBRANCH  37  38
ENDBRANCH  36  37
ENDBRANCH  20  36
ENDBRANCH  16  20
ENDBRANCH  15  18
BRANCH  15  40
ATOM     40  CB  ILE A   3      23.994  25.382  12.137  0.00  0.00    +0.027 C 
ATOM     41  CG2 ILE A   3      24.557  26.781  11.903  0.00  0.00    +0.002 C 
BRANCH  40  42
ATOM     42  CG1 ILE A   3      23.189  24.859  10.951  0.00  0.00    +0.002 C 
ATOM     43  CD1 ILE A   3      21.954  25.682  10.621  0.00  0.00    +0.000 C 
ENDBRANCH  40  42
ENDBRANCH  15  40
ENDBRANCH  11  15
ENDBRANCH  10  12
ENDBRANCH   6  10
ENDBRANCH   5   7
ENDBRANCH   1   5
BRANCH   2  44
ATOM     44  CA  ILE A   6      19.494  17.603  18.193  0.00  0.00    +0.149 C 
BRANCH  44  45
ATOM     45  C   ILE A   6      19.767  16.840  16.914  0.00  0.00    +0.241 C 
ATOM     46  N   GLY A   7      20.472  15.725  17.037  0.00  0.00    -0.295 N 
ATOM     47  H   GLY A   7      20.752  15.403  17.986  0.00  0.00    +0.150 HD
ATOM     48  O   ILE A   6      19.364  17.270  15.836  0.00  0.00    -0.273 OA
BRANCH  46  49
ATOM     49  CA  GLY A   7      20.864  14.940  15.876  0.00  0.00    +0.176 C 
BRANCH  49  50
ATOM     50  C   GLY A   7      22.188  15.299  15.279  0.00  0.00    +0.243 C 
ATOM     51  N   GLY A   8      22.841  16.370  15.649  0.00  0.00    -0.295 N 
ATOM     52  H   GLY A   8      22.420  16.990  16.370  0.00  0.00    +0.150 HD
ATOM     53  O   GLY A   7      22.635  14.598  14.372  0.00  0.00    -0.273 OA
BRANCH  51  54
ATOM     54  CA  GLY A   8      24.121  16.721  15.095  0.00  0.00    +0.176 C 
BRANCH  54  55
ATOM     55  C   GLY A   8      24.058  17.975  14.218  0.00  0.00    +0.243 C 
ATOM     56  O   GLY A   8      23.262  18.874  14.475  0.00  0.00    -0.273 OA
ATOM     57  N   PHE A   9      24.920  17.996  13.200  0.00  0.00    -0.297 N 
ATOM     58  H   PHE A   9      25.418  17.117  12.953  0.00  0.00    +0.150 HD
BRANCH  57  59
ATOM     59  CA  PHE A   9      25.194  19.185  12.425  0.00  0.00    +0.153 C 
BRANCH  59  60
ATOM     60  C   PHE A   9      24.791  19.041  10.962  0.00  0.00    +0.241 C 
ATOM     61  O   PHE A   9      24.793  17.928  10.432  0.00  0.00    -0.273 OA
ATOM     62  N   ILE A  10      24.462  20.162  10.327  0.00  0.00    -0.298 N 
ATOM     63  H   ILE A  10      24.296  21.019  10.892  0.00  0.00    +0.150 HD
BRANCH  62  64
ATOM     64  CA  ILE A  10      24.323  20.249   8.889  0.00  0.00    +0.137 C 
BRANCH  64  65
ATOM     65  CB  ILE A  10      22.871  20.414   8.422  0.00  0.00    +0.026 C 
ATOM     66  CG2 ILE A  10      22.045  19.204   8.822  0.00  0.00    +0.002 C 
BRANCH  65  67
ATOM     67  CG1 ILE A  10      22.217  21.717   8.930  0.00  0.00    +0.002 C 
ATOM     68  CD1 ILE A  10      20.867  22.037   8.272  0.00  0.00    +0.000 C 
ENDBRANCH  65  67
ENDBRANCH  64  65
BRANCH  64  69
ATOM     69  C   ILE A  10      25.168  21.422   8.371  0.00  0.00    +0.227 C 
ATOM     70  O   ILE A  10      25.443  22.364   9.120  0.00  0.00    -0.286 OA
ENDBRANCH  64  69
ENDBRANCH  62  64
ENDBRANCH  59  60
BRANCH  59  71
ATOM     71  CB  PHE A   9      26.664  19.555  12.459  0.00  0.00    +0.055 C 
BRANCH  71  72
ATOM     72  CG  PHE A   9      27.147  20.070  13.805  0.00  0.00    -0.020 A 
ATOM     73  CD2 PHE A   9      27.420  19.161  14.816  0.00  0.00    -0.004 A 
ATOM     74  CE2 PHE A   9      27.877  19.621  16.030  0.00  0.00    -0.000 A 
ATOM     75  CZ  PHE A   9      28.029  20.985  16.221  0.00  0.00    -0.000 A 
ATOM     76  CE1 PHE A   9      27.763  21.896  15.223  0.00  0.00    -0.000 A 
ATOM     77  CD1 PHE A   9      27.319  21.417  14.011  0.00  0.00    -0.004 A 
ENDBRANCH  71  72
ENDBRANCH  59  71
ENDBRANCH  57  59
ENDBRANCH  54  55
ENDBRANCH  51  54
ENDBRANCH  49  50
ENDBRANCH  46  49
ENDBRANCH  44  45
BRANCH  44  78
ATOM     78  CB  ILE A   6      18.062  17.465  18.724  0.00  0.00    +0.027 C 
ATOM     79  CG2 ILE A   6      17.551  16.038  18.544  0.00  0.00    +0.002 C 
BRANCH  78  80
ATOM     80  CG1 ILE A   6      18.009  17.859  20.224  0.00  0.00    +0.002 C 
ATOM     81  CD1 ILE A   6      16.661  18.122  20.691  0.00  0.00    +0.000 C 
ENDBRANCH  78  80
ENDBRANCH  44  78
ENDBRANCH   2  44
TORSDOF 36
REMARK  Name = ../refined-set-2016/2aoc/2aoc_pocket.pdb
REMARK  239 active torsions:
REMARK  status: ('A' for Active; 'I' for Inactive)
REMARK    1  A    between atoms: _1  and  _3
REMARK    2  A    between atoms: _3  and  _4
REMARK    3  A    between atoms: _3  and  _6
REMARK    4  A    between atoms: _6  and  _7
REMARK    5  A    between atoms: _7  and  _8
REMARK    6  A    between atoms: _8  and  _9
REMARK    7  A    between atoms: _18  and  _20
REMARK    8  A    between atoms: _20  and  _21
REMARK    9  A    between atoms: _20  and  _23
REMARK   10  A    between atoms: _23  and  _24
REMARK   11  A    between atoms: _27  and  _29
REMARK   12  A    between atoms: _29  and  _30
REMARK   13  A    between atoms: _29  and  _32
REMARK   14  A    between atoms: _33  and  _34
REMARK   15  A    between atoms: _37  and  _39
REMARK   16  A    between atoms: _39  and  _40
REMARK   17  A    between atoms: _39  and  _42
REMARK   18  A    between atoms: _42  and  _43
REMARK   19  A    between atoms: _46  and  _48
REMARK   20  A    between atoms: _48  and  _49
REMARK   21  A    between atoms: _48  and  _51
REMARK   22  A    between atoms: _51  and  _52
REMARK   23  A    between atoms: _55  and  _57
REMARK   24  A    between atoms: _57  and  _58
REMARK   25  A    between atoms: _57  and  _60
REMARK   26  A    between atoms: _60  and  _61
REMARK   27  A    between atoms: _64  and  _66
REMARK   28  A    between atoms: _66  and  _67
REMARK   29  A    between atoms: _66  and  _69
REMARK   30  A    between atoms: _69  and  _70
REMARK   31  A    between atoms: _73  and  _75
REMARK   32  A    between atoms: _75  and  _76
REMARK   33  A    between atoms: _78  and  _80
REMARK   34  A    between atoms: _80  and  _81
REMARK   35  A    between atoms: _84  and  _86
REMARK   36  A    between atoms: _86  and  _87
REMARK   37  A    between atoms: _86  and  _89
REMARK   38  A    between atoms: _89  and  _90
REMARK   39  A    between atoms: _93  and  _95
REMARK   40  A    between atoms: _95  and  _96
REMARK   41  A    between atoms: _95  and  _98
REMARK   42  A    between atoms: _98  and  _99
REMARK   43  A    between atoms: _102  and  _104
REMARK   44  A    between atoms: _104  and  _105
REMARK   45  A    between atoms: _104  and  _107
REMARK   46  A    between atoms: _107  and  _108
REMARK   47  A    between atoms: _111  and  _113
REMARK   48  A    between atoms: _113  and  _114
REMARK   49  A    between atoms: _113  and  _116
REMARK   50  A    between atoms: _119  and  _121
REMARK   51  A    between atoms: _121  and  _122
REMARK   52  A    between atoms: _121  and  _124
REMARK   53  A    between atoms: _124  and  _125
REMARK   54  A    between atoms: _125  and  _126
REMARK   55  A    between atoms: _126  and  _127
REMARK   56  A    between atoms: _127  and  _128
REMARK   57  A    between atoms: _132  and  _134
REMARK   58  A    between atoms: _134  and  _135
REMARK   59  A    between atoms: _134  and  _137
REMARK   60  A    between atoms: _137  and  _138
REMARK   61  A    between atoms: _138  and  _139
REMARK   62  A    between atoms: _141  and  _143
REMARK   63  A    between atoms: _143  and  _144
REMARK   64  A    between atoms: _143  and  _146
REMARK   65  A    between atoms: _146  and  _147
REMARK   66  A    between atoms: _150  and  _152
REMARK   67  A    between atoms: _152  and  _153
REMARK   68  A    between atoms: _155  and  _157
REMARK   69  A    between atoms: _157  and  _158
REMARK   70  A    between atoms: _160  and  _162
REMARK   71  A    between atoms: _162  and  _163
REMARK   72  A    between atoms: _162  and  _165
REMARK   73  A    between atoms: _165  and  _166
REMARK   74  A    between atoms: _169  and  _171
REMARK   75  A    between atoms: _171  and  _172
REMARK   76  A    between atoms: _174  and  _176
REMARK   77  A    between atoms: _176  and  _177
REMARK   78  A    between atoms: _179  and  _181
REMARK   79  A    between atoms: _181  and  _182
REMARK   80  A    between atoms: _181  and  _184
REMARK   81  A    between atoms: _184  and  _185
REMARK   82  A    between atoms: _191  and  _193
REMARK   83  A    between atoms: _193  and  _194
REMARK   84  A    between atoms: _193  and  _196
REMARK   85  A    between atoms: _196  and  _197
REMARK   86  A    between atoms: _200  and  _202
REMARK   87  A    between atoms: _202  and  _203
REMARK   88  A    between atoms: _202  and  _205
REMARK   89  A    between atoms: _208  and  _210
REMARK   90  A    between atoms: _210  and  _211
REMARK   91  A    between atoms: _210  and  _213
REMARK   92  A    between atoms: _213  and  _214
REMARK   93  A    between atoms: _218  and  _219
REMARK   94  A    between atoms: _224  and  _226
REMARK   95  A    between atoms: _226  and  _227
REMARK   96  A    between atoms: _226  and  _229
REMARK   97  A    between atoms: _229  and  _230
REMARK   98  A    between atoms: _234  and  _235
REMARK   99  A    between atoms: _240  and  _242
REMARK  100  A    between atoms: _242  and  _243
REMARK  101  A    between atoms: _242  and  _245
REMARK  102  A    between atoms: _248  and  _250
REMARK  103  A    between atoms: _250  and  _251
REMARK  104  A    between atoms: _250  and  _253
REMARK  105  A    between atoms: _253  and  _254
REMARK  106  A    between atoms: _259  and  _261
REMARK  107  A    between atoms: _261  and  _262
REMARK  108  A    between atoms: _261  and  _264
REMARK  109  A    between atoms: _267  and  _269
REMARK  110  A    between atoms: _269  and  _270
REMARK  111  A    between atoms: _269  and  _272
REMARK  112  A    between atoms: _272  and  _273
REMARK  113  A    between atoms: _276  and  _278
REMARK  114  A    between atoms: _278  and  _279
REMARK  115  A    between atoms: _281  and  _283
REMARK  116  A    between atoms: _283  and  _284
REMARK  117  A    between atoms: _283  and  _286
REMARK  118  A    between atoms: _287  and  _288
REMARK  119  A    between atoms: _288  and  _289
REMARK  120  A    between atoms: _298  and  _300
REMARK  121  A    between atoms: _300  and  _301
REMARK  122  A    between atoms: _300  and  _303
REMARK  123  A    between atoms: _303  and  _304
REMARK  124  A    between atoms: _309  and  _311
REMARK  125  A    between atoms: _311  and  _312
REMARK  126  A    between atoms: _311  and  _314
REMARK  127  A    between atoms: _314  and  _315
REMARK  128  A    between atoms: _315  and  _316
REMARK  129  A    between atoms: _316  and  _317
REMARK  130  A    between atoms: _326  and  _328
REMARK  131  A    between atoms: _328  and  _329
REMARK  132  A    between atoms: _328  and  _331
REMARK  133  A    between atoms: _331  and  _332
REMARK  134  A    between atoms: _335  and  _337
REMARK  135  A    between atoms: _337  and  _338
REMARK  136  A    between atoms: _337  and  _340
REMARK  137  A    between atoms: _340  and  _341
REMARK  138  A    between atoms: _344  and  _346
REMARK  139  A    between atoms: _346  and  _347
REMARK  140  A    between atoms: _346  and  _349
REMARK  141  A    between atoms: _349  and  _350
REMARK  142  A    between atoms: _353  and  _355
REMARK  143  A    between atoms: _355  and  _356
REMARK  144  A    between atoms: _355  and  _358
REMARK  145  A    between atoms: _358  and  _359
REMARK  146  A    between atoms: _362  and  _364
REMARK  147  A    between atoms: _364  and  _365
REMARK  148  A    between atoms: _367  and  _369
REMARK  149  A    between atoms: _369  and  _370
REMARK  150  A    between atoms: _373  and  _375
REMARK  151  A    between atoms: _375  and  _376
REMARK  152  A    between atoms: _375  and  _378
REMARK  153  A    between atoms: _378  and  _379
REMARK  154  A    between atoms: _382  and  _384
REMARK  155  A    between atoms: _384  and  _385
REMARK  156  A    between atoms: _384  and  _387
REMARK  157  A    between atoms: _387  and  _388
REMARK  158  A    between atoms: _391  and  _393
REMARK  159  A    between atoms: _393  and  _394
REMARK  160  A    between atoms: _393  and  _396
REMARK  161  A    between atoms: _396  and  _397
REMARK  162  A    between atoms: _400  and  _402
REMARK  163  A    between atoms: _402  and  _403
REMARK  164  A    between atoms: _402  and  _405
REMARK  165  A    between atoms: _408  and  _410
REMARK  166  A    between atoms: _410  and  _411
REMARK  167  A    between atoms: _410  and  _413
REMARK  168  A    between atoms: _413  and  _414
REMARK  169  A    between atoms: _414  and  _415
REMARK  170  A    between atoms: _415  and  _416
REMARK  171  A    between atoms: _416  and  _417
REMARK  172  A    between atoms: _421  and  _423
REMARK  173  A    between atoms: _423  and  _424
REMARK  174  A    between atoms: _423  and  _426
REMARK  175  A    between atoms: _426  and  _427
REMARK  176  A    between atoms: _427  and  _428
REMARK  177  A    between atoms: _430  and  _432
REMARK  178  A    between atoms: _432  and  _433
REMARK  179  A    between atoms: _432  and  _435
REMARK  180  A    between atoms: _435  and  _436
REMARK  181  A    between atoms: _439  and  _441
REMARK  182  A    between atoms: _441  and  _442
REMARK  183  A    between atoms: _444  and  _446
REMARK  184  A    between atoms: _446  and  _447
REMARK  185  A    between atoms: _449  and  _451
REMARK  186  A    between atoms: _451  and  _452
REMARK  187  A    between atoms: _451  and  _454
REMARK  188  A    between atoms: _454  and  _455
REMARK  189  A    between atoms: _458  and  _460
REMARK  190  A    between atoms: _460  and  _461
REMARK  191  A    between atoms: _463  and  _465
REMARK  192  A    between atoms: _465  and  _466
REMARK  193  A    between atoms: _468  and  _470
REMARK  194  A    between atoms: _470  and  _471
REMARK  195  A    between atoms: _470  and  _473
REMARK  196  A    between atoms: _473  and  _474
REMARK  197  A    between atoms: _480  and  _482
REMARK  198  A    between atoms: _482  and  _483
REMARK  199  A    between atoms: _482  and  _485
REMARK  200  A    between atoms: _485  and  _486
REMARK  201  A    between atoms: _489  and  _491
REMARK  202  A    between atoms: _491  and  _492
REMARK  203  A    between atoms: _491  and  _494
REMARK  204  A    between atoms: _497  and  _499
REMARK  205  A    between atoms: _499  and  _500
REMARK  206  A    between atoms: _499  and  _502
REMARK  207  A    between atoms: _502  and  _503
REMARK  208  A    between atoms: _507  and  _508
REMARK  209  A    between atoms: _513  and  _515
REMARK  210  A    between atoms: _515  and  _516
REMARK  211  A    between atoms: _515  and  _518
REMARK  212  A    between atoms: _518  and  _519
REMARK  213  A    between atoms: _523  and  _524
REMARK  214  A    between atoms: _529  and  _531
REMARK  215  A    between atoms: _531  and  _532
REMARK  216  A    between atoms: _531  and  _534
REMARK  217  A    between atoms: _537  and  _539
REMARK  218  A    between atoms: _539  and  _540
REMARK  219  A    between atoms: _539  and  _542
REMARK  220  A    between atoms: _542  and  _543
REMARK  221  A    between atoms: _548  and  _550
REMARK  222  A    between atoms: _550  and  _551
REMARK  223  A    between atoms: _550  and  _553
REMARK  224  A    between atoms: _556  and  _558
REMARK  225  A    between atoms: _558  and  _559
REMARK  226  A    between atoms: _558  and  _561
REMARK  227  A    between atoms: _561  and  _562
REMARK  228  A    between atoms: _565  and  _567
REMARK  229  A    between atoms: _567  and  _568
REMARK  230  A    between atoms: _570  and  _572
REMARK  231  A    between atoms: _572  and  _573
REMARK  232  A    between atoms: _572  and  _575
REMARK  233  A    between atoms: _575  and  _576
REMARK  234  A    between atoms: _576  and  _577
REMARK  235  A    between atoms: _577  and  _578
REMARK  236  A    between atoms: _587  and  _589
REMARK  237  A    between atoms: _589  and  _590
REMARK  238  A    between atoms: _589  and  _592
REMARK  239  A    between atoms: _592  and  _593
REMARK                            x       y       z     vdW  Elec       q    Type
REMARK                         _______ _______ _______ _____ _____    ______ ____
ROOT
ATOM      1  CA  VAL A   1      24.594  25.603   5.245  0.00  0.00    +0.133 C 
ENDROOT
BRANCH   1   2
ATOM      2  CB  VAL A   1      23.672  26.244   6.300  0.00  0.00    +0.023 C 
ATOM      3  CG2 VAL A   1      24.455  26.952   7.382  0.00  0.00    +0.002 C 
ATOM      4  CG1 VAL A   1      22.727  25.234   6.965  0.00  0.00    +0.002 C 
ENDBRANCH   1   2
BRANCH   1   5
ATOM      5  N   VAL A   1      25.462  24.593   5.856  0.00  0.00    -0.239 NA
ATOM      6  H   VAL A   1      26.262  24.904   6.442  0.00  0.00    +0.142 HD
ENDBRANCH   1   5
BRANCH   1   7
ATOM      7  C   VAL A   1      25.421  26.682   4.569  0.00  0.00    +0.224 C 
ATOM      8  O   VAL A   1      26.620  26.780   4.795  0.00  0.00    -0.287 OA
ENDBRANCH   1   7
TORSDOF 3
REMARK  Name = ../refined-set-2016/2aoc/2aoc_pocket.pdb
REMARK  239 active torsions:
REMARK  status: ('A' for Active; 'I' for Inactive)
REMARK    1  A    between atoms: _1  and  _3
REMARK    2  A    between atoms: _3  and  _4
REMARK    3  A    between atoms: _3  and  _6
REMARK    4  A    between atoms: _6  and  _7
REMARK    5  A    between atoms: _7  and  _8
REMARK    6  A    between atoms: _8  and  _9
REMARK    7  A    between atoms: _18  and  _20
REMARK    8  A    between atoms: _20  and  _21
REMARK    9  A    between atoms: _20  and  _23
REMARK   10  A    between atoms: _23  and  _24
REMARK   11  A    between atoms: _27  and  _29
REMARK   12  A    between atoms: _29  and  _30
REMARK   13  A    between atoms: _29  and  _32
REMARK   14  A    between atoms: _33  and  _34
REMARK   15  A    between atoms: _37  and  _39
REMARK   16  A    between atoms: _39  and  _40
REMARK   17  A    between atoms: _39  and  _42
REMARK   18  A    between atoms: _42  and  _43
REMARK   19  A    between atoms: _46  and  _48
REMARK   20  A    between atoms: _48  and  _49
REMARK   21  A    between atoms: _48  and  _51
REMARK   22  A    between atoms: _51  and  _52
REMARK   23  A    between atoms: _55  and  _57
REMARK   24  A    between atoms: _57  and  _58
REMARK   25  A    between atoms: _57  and  _60
REMARK   26  A    between atoms: _60  and  _61
REMARK   27  A    between atoms: _64  and  _66
REMARK   28  A    between atoms: _66  and  _67
REMARK   29  A    between atoms: _66  and  _69
REMARK   30  A    between atoms: _69  and  _70
REMARK   31  A    between atoms: _73  and  _75
REMARK   32  A    between atoms: _75  and  _76
REMARK   33  A    between atoms: _78  and  _80
REMARK   34  A    between atoms: _80  and  _81
REMARK   35  A    between atoms: _84  and  _86
REMARK   36  A    between atoms: _86  and  _87
REMARK   37  A    between atoms: _86  and  _89
REMARK   38  A    between atoms: _89  and  _90
REMARK   39  A    between atoms: _93  and  _95
REMARK   40  A    between atoms: _95  and  _96
REMARK   41  A    between atoms: _95  and  _98
REMARK   42  A    between atoms: _98  and  _99
REMARK   43  A    between atoms: _102  and  _104
REMARK   44  A    between atoms: _104  and  _105
REMARK   45  A    between atoms: _104  and  _107
REMARK   46  A    between atoms: _107  and  _108
REMARK   47  A    between atoms: _111  and  _113
REMARK   48  A    between atoms: _113  and  _114
REMARK   49  A    between atoms: _113  and  _116
REMARK   50  A    between atoms: _119  and  _121
REMARK   51  A    between atoms: _121  and  _122
REMARK   52  A    between atoms: _121  and  _124
REMARK   53  A    between atoms: _124  and  _125
REMARK   54  A    between atoms: _125  and  _126
REMARK   55  A    between atoms: _126  and  _127
REMARK   56  A    between atoms: _127  and  _128
REMARK   57  A    between atoms: _132  and  _134
REMARK   58  A    between atoms: _134  and  _135
REMARK   59  A    between atoms: _134  and  _137
REMARK   60  A    between atoms: _137  and  _138
REMARK   61  A    between atoms: _138  and  _139
REMARK   62  A    between atoms: _141  and  _143
REMARK   63  A    between atoms: _143  and  _144
REMARK   64  A    between atoms: _143  and  _146
REMARK   65  A    between atoms: _146  and  _147
REMARK   66  A    between atoms: _150  and  _152
REMARK   67  A    between atoms: _152  and  _153
REMARK   68  A    between atoms: _155  and  _157
REMARK   69  A    between atoms: _157  and  _158
REMARK   70  A    between atoms: _160  and  _162
REMARK   71  A    between atoms: _162  and  _163
REMARK   72  A    between atoms: _162  and  _165
REMARK   73  A    between atoms: _165  and  _166
REMARK   74  A    between atoms: _169  and  _171
REMARK   75  A    between atoms: _171  and  _172
REMARK   76  A    between atoms: _174  and  _176
REMARK   77  A    between atoms: _176  and  _177
REMARK   78  A    between atoms: _179  and  _181
REMARK   79  A    between atoms: _181  and  _182
REMARK   80  A    between atoms: _181  and  _184
REMARK   81  A    between atoms: _184  and  _185
REMARK   82  A    between atoms: _191  and  _193
REMARK   83  A    between atoms: _193  and  _194
REMARK   84  A    between atoms: _193  and  _196
REMARK   85  A    between atoms: _196  and  _197
REMARK   86  A    between atoms: _200  and  _202
REMARK   87  A    between atoms: _202  and  _203
REMARK   88  A    between atoms: _202  and  _205
REMARK   89  A    between atoms: _208  and  _210
REMARK   90  A    between atoms: _210  and  _211
REMARK   91  A    between atoms: _210  and  _213
REMARK   92  A    between atoms: _213  and  _214
REMARK   93  A    between atoms: _218  and  _219
REMARK   94  A    between atoms: _224  and  _226
REMARK   95  A    between atoms: _226  and  _227
REMARK   96  A    between atoms: _226  and  _229
REMARK   97  A    between atoms: _229  and  _230
REMARK   98  A    between atoms: _234  and  _235
REMARK   99  A    between atoms: _240  and  _242
REMARK  100  A    between atoms: _242  and  _243
REMARK  101  A    between atoms: _242  and  _245
REMARK  102  A    between atoms: _248  and  _250
REMARK  103  A    between atoms: _250  and  _251
REMARK  104  A    between atoms: _250  and  _253
REMARK  105  A    between atoms: _253  and  _254
REMARK  106  A    between atoms: _259  and  _261
REMARK  107  A    between atoms: _261  and  _262
REMARK  108  A    between atoms: _261  and  _264
REMARK  109  A    between atoms: _267  and  _269
REMARK  110  A    between atoms: _269  and  _270
REMARK  111  A    between atoms: _269  and  _272
REMARK  112  A    between atoms: _272  and  _273
REMARK  113  A    between atoms: _276  and  _278
REMARK  114  A    between atoms: _278  and  _279
REMARK  115  A    between atoms: _281  and  _283
REMARK  116  A    between atoms: _283  and  _284
REMARK  117  A    between atoms: _283  and  _286
REMARK  118  A    between atoms: _287  and  _288
REMARK  119  A    between atoms: _288  and  _289
REMARK  120  A    between atoms: _298  and  _300
REMARK  121  A    between atoms: _300  and  _301
REMARK  122  A    between atoms: _300  and  _303
REMARK  123  A    between atoms: _303  and  _304
REMARK  124  A    between atoms: _309  and  _311
REMARK  125  A    between atoms: _311  and  _312
REMARK  126  A    between atoms: _311  and  _314
REMARK  127  A    between atoms: _314  and  _315
REMARK  128  A    between atoms: _315  and  _316
REMARK  129  A    between atoms: _316  and  _317
REMARK  130  A    between atoms: _326  and  _328
REMARK  131  A    between atoms: _328  and  _329
REMARK  132  A    between atoms: _328  and  _331
REMARK  133  A    between atoms: _331  and  _332
REMARK  134  A    between atoms: _335  and  _337
REMARK  135  A    between atoms: _337  and  _338
REMARK  136  A    between atoms: _337  and  _340
REMARK  137  A    between atoms: _340  and  _341
REMARK  138  A    between atoms: _344  and  _346
REMARK  139  A    between atoms: _346  and  _347
REMARK  140  A    between atoms: _346  and  _349
REMARK  141  A    between atoms: _349  and  _350
REMARK  142  A    between atoms: _353  and  _355
REMARK  143  A    between atoms: _355  and  _356
REMARK  144  A    between atoms: _355  and  _358
REMARK  145  A    between atoms: _358  and  _359
REMARK  146  A    between atoms: _362  and  _364
REMARK  147  A    between atoms: _364  and  _365
REMARK  148  A    between atoms: _367  and  _369
REMARK  149  A    between atoms: _369  and  _370
REMARK  150  A    between atoms: _373  and  _375
REMARK  151  A    between atoms: _375  and  _376
REMARK  152  A    between atoms: _375  and  _378
REMARK  153  A    between atoms: _378  and  _379
REMARK  154  A    between atoms: _382  and  _384
REMARK  155  A    between atoms: _384  and  _385
REMARK  156  A    between atoms: _384  and  _387
REMARK  157  A    between atoms: _387  and  _388
REMARK  158  A    between atoms: _391  and  _393
REMARK  159  A    between atoms: _393  and  _394
REMARK  160  A    between atoms: _393  and  _396
REMARK  161  A    between atoms: _396  and  _397
REMARK  162  A    between atoms: _400  and  _402
REMARK  163  A    between atoms: _402  and  _403
REMARK  164  A    between atoms: _402  and  _405
REMARK  165  A    between atoms: _408  and  _410
REMARK  166  A    between atoms: _410  and  _411
REMARK  167  A    between atoms: _410  and  _413
REMARK  168  A    between atoms: _413  and  _414
REMARK  169  A    between atoms: _414  and  _415
REMARK  170  A    between atoms: _415  and  _416
REMARK  171  A    between atoms: _416  and  _417
REMARK  172  A    between atoms: _421  and  _423
REMARK  173  A    between atoms: _423  and  _424
REMARK  174  A    between atoms: _423  and  _426
REMARK  175  A    between atoms: _426  and  _427
REMARK  176  A    between atoms: _427  and  _428
REMARK  177  A    between atoms: _430  and  _432
REMARK  178  A    between atoms: _432  and  _433
REMARK  179  A    between atoms: _432  and  _435
REMARK  180  A    between atoms: _435  and  _436
REMARK  181  A    between atoms: _439  and  _441
REMARK  182  A    between atoms: _441  and  _442
REMARK  183  A    between atoms: _444  and  _446
REMARK  184  A    between atoms: _446  and  _447
REMARK  185  A    between atoms: _449  and  _451
REMARK  186  A    between atoms: _451  and  _452
REMARK  187  A    between atoms: _451  and  _454
REMARK  188  A    between atoms: _454  and  _455
REMARK  189  A    between atoms: _458  and  _460
REMARK  190  A    between atoms: _460  and  _461
REMARK  191  A    between atoms: _463  and  _465
REMARK  192  A    between atoms: _465  and  _466
REMARK  193  A    between atoms: _468  and  _470
REMARK  194  A    between atoms: _470  and  _471
REMARK  195  A    between atoms: _470  and  _473
REMARK  196  A    between atoms: _473  and  _474
REMARK  197  A    between atoms: _480  and  _482
REMARK  198  A    between atoms: _482  and  _483
REMARK  199  A    between atoms: _482  and  _485
REMARK  200  A    between atoms: _485  and  _486
REMARK  201  A    between atoms: _489  and  _491
REMARK  202  A    between atoms: _491  and  _492
REMARK  203  A    between atoms: _491  and  _494
REMARK  204  A    between atoms: _497  and  _499
REMARK  205  A    between atoms: _499  and  _500
REMARK  206  A    between atoms: _499  and  _502
REMARK  207  A    between atoms: _502  and  _503
REMARK  208  A    between atoms: _507  and  _508
REMARK  209  A    between atoms: _513  and  _515
REMARK  210  A    between atoms: _515  and  _516
REMARK  211  A    between atoms: _515  and  _518
REMARK  212  A    between atoms: _518  and  _519
REMARK  213  A    between atoms: _523  and  _524
REMARK  214  A    between atoms: _529  and  _531
REMARK  215  A    between atoms: _531  and  _532
REMARK  216  A    between atoms: _531  and  _534
REMARK  217  A    between atoms: _537  and  _539
REMARK  218  A    between atoms: _539  and  _540
REMARK  219  A    between atoms: _539  and  _542
REMARK  220  A    between atoms: _542  and  _543
REMARK  221  A    between atoms: _548  and  _550
REMARK  222  A    between atoms: _550  and  _551
REMARK  223  A    between atoms: _550  and  _553
REMARK  224  A    between atoms: _556  and  _558
REMARK  225  A    between atoms: _558  and  _559
REMARK  226  A    between atoms: _558  and  _561
REMARK  227  A    between atoms: _561  and  _562
REMARK  228  A    between atoms: _565  and  _567
REMARK  229  A    between atoms: _567  and  _568
REMARK  230  A    between atoms: _570  and  _572
REMARK  231  A    between atoms: _572  and  _573
REMARK  232  A    between atoms: _572  and  _575
REMARK  233  A    between atoms: _575  and  _576
REMARK  234  A    between atoms: _576  and  _577
REMARK  235  A    between atoms: _577  and  _578
REMARK  236  A    between atoms: _587  and  _589
REMARK  237  A    between atoms: _589  and  _590
REMARK  238  A    between atoms: _589  and  _592
REMARK  239  A    between atoms: _592  and  _593
REMARK                            x       y       z     vdW  Elec       q    Type
REMARK                         _______ _______ _______ _____ _____    ______ ____
ROOT
ATOM      1  CA  LEU A   1      21.299  30.367   6.495  0.00  0.00    +0.133 C 
ENDROOT
BRANCH   1   2
ATOM      2  N   LEU A   1      20.590  31.567   6.837  0.00  0.00    -0.239 NA
ATOM      3  H   LEU A   1      19.906  31.539   7.620  0.00  0.00    +0.142 HD
ENDBRANCH   1   2
BRANCH   1   4
ATOM      4  C   LEU A   1      20.405  29.476   5.632  0.00  0.00    +0.224 C 
ATOM      5  O   LEU A   1      19.230  29.320   5.944  0.00  0.00    -0.287 OA
ENDBRANCH   1   4
BRANCH   1   6
ATOM      6  CB  LEU A   1      21.728  29.593   7.732  0.00  0.00    +0.025 C 
BRANCH   6   7
ATOM      7  CG  LEU A   1      22.444  30.437   8.825  0.00  0.00    +0.002 C 
ATOM      8  CD2 LEU A   1      22.762  29.565  10.009  0.00  0.00    +0.000 C 
ATOM      9  CD1 LEU A   1      23.682  31.121   8.256  0.00  0.00    +0.000 C 
ENDBRANCH   6   7
ENDBRANCH   1   6
TORSDOF 4
REMARK  Name = ../refined-set-2016/2aoc/2aoc_pocket.pdb
REMARK  239 active torsions:
REMARK  status: ('A' for Active; 'I' for Inactive)
REMARK    1  A    between atoms: _1  and  _3
REMARK    2  A    between atoms: _3  and  _4
REMARK    3  A    between atoms: _3  and  _6
REMARK    4  A    between atoms: _6  and  _7
REMARK    5  A    between atoms: _7  and  _8
REMARK    6  A    between atoms: _8  and  _9
REMARK    7  A    between atoms: _18  and  _20
REMARK    8  A    between atoms: _20  and  _21
REMARK    9  A    between atoms: _20  and  _23
REMARK   10  A    between atoms: _23  and  _24
REMARK   11  A    between atoms: _27  and  _29
REMARK   12  A    between atoms: _29  and  _30
REMARK   13  A    between atoms: _29  and  _32
REMARK   14  A    between atoms: _33  and  _34
REMARK   15  A    between atoms: _37  and  _39
REMARK   16  A    between atoms: _39  and  _40
REMARK   17  A    between atoms: _39  and  _42
REMARK   18  A    between atoms: _42  and  _43
REMARK   19  A    between atoms: _46  and  _48
REMARK   20  A    between atoms: _48  and  _49
REMARK   21  A    between atoms: _48  and  _51
REMARK   22  A    between atoms: _51  and  _52
REMARK   23  A    between atoms: _55  and  _57
REMARK   24  A    between atoms: _57  and  _58
REMARK   25  A    between atoms: _57  and  _60
REMARK   26  A    between atoms: _60  and  _61
REMARK   27  A    between atoms: _64  and  _66
REMARK   28  A    between atoms: _66  and  _67
REMARK   29  A    between atoms: _66  and  _69
REMARK   30  A    between atoms: _69  and  _70
REMARK   31  A    between atoms: _73  and  _75
REMARK   32  A    between atoms: _75  and  _76
REMARK   33  A    between atoms: _78  and  _80
REMARK   34  A    between atoms: _80  and  _81
REMARK   35  A    between atoms: _84  and  _86
REMARK   36  A    between atoms: _86  and  _87
REMARK   37  A    between atoms: _86  and  _89
REMARK   38  A    between atoms: _89  and  _90
REMARK   39  A    between atoms: _93  and  _95
REMARK   40  A    between atoms: _95  and  _96
REMARK   41  A    between atoms: _95  and  _98
REMARK   42  A    between atoms: _98  and  _99
REMARK   43  A    between atoms: _102  and  _104
REMARK   44  A    between atoms: _104  and  _105
REMARK   45  A    between atoms: _104  and  _107
REMARK   46  A    between atoms: _107  and  _108
REMARK   47  A    between atoms: _111  and  _113
REMARK   48  A    between atoms: _113  and  _114
REMARK   49  A    between atoms: _113  and  _116
REMARK   50  A    between atoms: _119  and  _121
REMARK   51  A    between atoms: _121  and  _122
REMARK   52  A    between atoms: _121  and  _124
REMARK   53  A    between atoms: _124  and  _125
REMARK   54  A    between atoms: _125  and  _126
REMARK   55  A    between atoms: _126  and  _127
REMARK   56  A    between atoms: _127  and  _128
REMARK   57  A    between atoms: _132  and  _134
REMARK   58  A    between atoms: _134  and  _135
REMARK   59  A    between atoms: _134  and  _137
REMARK   60  A    between atoms: _137  and  _138
REMARK   61  A    between atoms: _138  and  _139
REMARK   62  A    between atoms: _141  and  _143
REMARK   63  A    between atoms: _143  and  _144
REMARK   64  A    between atoms: _143  and  _146
REMARK   65  A    between atoms: _146  and  _147
REMARK   66  A    between atoms: _150  and  _152
REMARK   67  A    between atoms: _152  and  _153
REMARK   68  A    between atoms: _155  and  _157
REMARK   69  A    between atoms: _157  and  _158
REMARK   70  A    between atoms: _160  and  _162
REMARK   71  A    between atoms: _162  and  _163
REMARK   72  A    between atoms: _162  and  _165
REMARK   73  A    between atoms: _165  and  _166
REMARK   74  A    between atoms: _169  and  _171
REMARK   75  A    between atoms: _171  and  _172
REMARK   76  A    between atoms: _174  and  _176
REMARK   77  A    between atoms: _176  and  _177
REMARK   78  A    between atoms: _179  and  _181
REMARK   79  A    between atoms: _181  and  _182
REMARK   80  A    between atoms: _181  and  _184
REMARK   81  A    between atoms: _184  and  _185
REMARK   82  A    between atoms: _191  and  _193
REMARK   83  A    between atoms: _193  and  _194
REMARK   84  A    between atoms: _193  and  _196
REMARK   85  A    between atoms: _196  and  _197
REMARK   86  A    between atoms: _200  and  _202
REMARK   87  A    between atoms: _202  and  _203
REMARK   88  A    between atoms: _202  and  _205
REMARK   89  A    between atoms: _208  and  _210
REMARK   90  A    between atoms: _210  and  _211
REMARK   91  A    between atoms: _210  and  _213
REMARK   92  A    between atoms: _213  and  _214
REMARK   93  A    between atoms: _218  and  _219
REMARK   94  A    between atoms: _224  and  _226
REMARK   95  A    between atoms: _226  and  _227
REMARK   96  A    between atoms: _226  and  _229
REMARK   97  A    between atoms: _229  and  _230
REMARK   98  A    between atoms: _234  and  _235
REMARK   99  A    between atoms: _240  and  _242
REMARK  100  A    between atoms: _242  and  _243
REMARK  101  A    between atoms: _242  and  _245
REMARK  102  A    between atoms: _248  and  _250
REMARK  103  A    between atoms: _250  and  _251
REMARK  104  A    between atoms: _250  and  _253
REMARK  105  A    between atoms: _253  and  _254
REMARK  106  A    between atoms: _259  and  _261
REMARK  107  A    between atoms: _261  and  _262
REMARK  108  A    between atoms: _261  and  _264
REMARK  109  A    between atoms: _267  and  _269
REMARK  110  A    between atoms: _269  and  _270
REMARK  111  A    between atoms: _269  and  _272
REMARK  112  A    between atoms: _272  and  _273
REMARK  113  A    between atoms: _276  and  _278
REMARK  114  A    between atoms: _278  and  _279
REMARK  115  A    between atoms: _281  and  _283
REMARK  116  A    between atoms: _283  and  _284
REMARK  117  A    between atoms: _283  and  _286
REMARK  118  A    between atoms: _287  and  _288
REMARK  119  A    between atoms: _288  and  _289
REMARK  120  A    between atoms: _298  and  _300
REMARK  121  A    between atoms: _300  and  _301
REMARK  122  A    between atoms: _300  and  _303
REMARK  123  A    between atoms: _303  and  _304
REMARK  124  A    between atoms: _309  and  _311
REMARK  125  A    between atoms: _311  and  _312
REMARK  126  A    between atoms: _311  and  _314
REMARK  127  A    between atoms: _314  and  _315
REMARK  128  A    between atoms: _315  and  _316
REMARK  129  A    between atoms: _316  and  _317
REMARK  130  A    between atoms: _326  and  _328
REMARK  131  A    between atoms: _328  and  _329
REMARK  132  A    between atoms: _328  and  _331
REMARK  133  A    between atoms: _331  and  _332
REMARK  134  A    between atoms: _335  and  _337
REMARK  135  A    between atoms: _337  and  _338
REMARK  136  A    between atoms: _337  and  _340
REMARK  137  A    between atoms: _340  and  _341
REMARK  138  A    between atoms: _344  and  _346
REMARK  139  A    between atoms: _346  and  _347
REMARK  140  A    between atoms: _346  and  _349
REMARK  141  A    between atoms: _349  and  _350
REMARK  142  A    between atoms: _353  and  _355
REMARK  143  A    between atoms: _355  and  _356
REMARK  144  A    between atoms: _355  and  _358
REMARK  145  A    between atoms: _358  and  _359
REMARK  146  A    between atoms: _362  and  _364
REMARK  147  A    between atoms: _364  and  _365
REMARK  148  A    between atoms: _367  and  _369
REMARK  149  A    between atoms: _369  and  _370
REMARK  150  A    between atoms: _373  and  _375
REMARK  151  A    between atoms: _375  and  _376
REMARK  152  A    between atoms: _375  and  _378
REMARK  153  A    between atoms: _378  and  _379
REMARK  154  A    between atoms: _382  and  _384
REMARK  155  A    between atoms: _384  and  _385
REMARK  156  A    between atoms: _384  and  _387
REMARK  157  A    between atoms: _387  and  _388
REMARK  158  A    between atoms: _391  and  _393
REMARK  159  A    between atoms: _393  and  _394
REMARK  160  A    between atoms: _393  and  _396
REMARK  161  A    between atoms: _396  and  _397
REMARK  162  A    between atoms: _400  and  _402
REMARK  163  A    between atoms: _402  and  _403
REMARK  164  A    between atoms: _402  and  _405
REMARK  165  A    between atoms: _408  and  _410
REMARK  166  A    between atoms: _410  and  _411
REMARK  167  A    between atoms: _410  and  _413
REMARK  168  A    between atoms: _413  and  _414
REMARK  169  A    between atoms: _414  and  _415
REMARK  170  A    between atoms: _415  and  _416
REMARK  171  A    between atoms: _416  and  _417
REMARK  172  A    between atoms: _421  and  _423
REMARK  173  A    between atoms: _423  and  _424
REMARK  174  A    between atoms: _423  and  _426
REMARK  175  A    between atoms: _426  and  _427
REMARK  176  A    between atoms: _427  and  _428
REMARK  177  A    between atoms: _430  and  _432
REMARK  178  A    between atoms: _432  and  _433
REMARK  179  A    between atoms: _432  and  _435
REMARK  180  A    between atoms: _435  and  _436
REMARK  181  A    between atoms: _439  and  _441
REMARK  182  A    between atoms: _441  and  _442
REMARK  183  A    between atoms: _444  and  _446
REMARK  184  A    between atoms: _446  and  _447
REMARK  185  A    between atoms: _449  and  _451
REMARK  186  A    between atoms: _451  and  _452
REMARK  187  A    between atoms: _451  and  _454
REMARK  188  A    between atoms: _454  and  _455
REMARK  189  A    between atoms: _458  and  _460
REMARK  190  A    between atoms: _460  and  _461
REMARK  191  A    between atoms: _463  and  _465
REMARK  192  A    between atoms: _465  and  _466
REMARK  193  A    between atoms: _468  and  _470
REMARK  194  A    between atoms: _470  and  _471
REMARK  195  A    between atoms: _470  and  _473
REMARK  196  A    between atoms: _473  and  _474
REMARK  197  A    between atoms: _480  and  _482
REMARK  198  A    between atoms: _482  and  _483
REMARK  199  A    between atoms: _482  and  _485
REMARK  200  A    between atoms: _485  and  _486
REMARK  201  A    between atoms: _489  and  _491
REMARK  202  A    between atoms: _491  and  _492
REMARK  203  A    between atoms: _491  and  _494
REMARK  204  A    between atoms: _497  and  _499
REMARK  205  A    between atoms: _499  and  _500
REMARK  206  A    between atoms: _499  and  _502
REMARK  207  A    between atoms: _502  and  _503
REMARK  208  A    between atoms: _507  and  _508
REMARK  209  A    between atoms: _513  and  _515
REMARK  210  A    between atoms: _515  and  _516
REMARK  211  A    between atoms: _515  and  _518
REMARK  212  A    between atoms: _518  and  _519
REMARK  213  A    between atoms: _523  and  _524
REMARK  214  A    between atoms: _529  and  _531
REMARK  215  A    between atoms: _531  and  _532
REMARK  216  A    between atoms: _531  and  _534
REMARK  217  A    between atoms: _537  and  _539
REMARK  218  A    between atoms: _539  and  _540
REMARK  219  A    between atoms: _539  and  _542
REMARK  220  A    between atoms: _542  and  _543
REMARK  221  A    between atoms: _548  and  _550
REMARK  222  A    between atoms: _550  and  _551
REMARK  223  A    between atoms: _550  and  _553
REMARK  224  A    between atoms: _556  and  _558
REMARK  225  A    between atoms: _558  and  _559
REMARK  226  A    between atoms: _558  and  _561
REMARK  227  A    between atoms: _561  and  _562
REMARK  228  A    between atoms: _565  and  _567
REMARK  229  A    between atoms: _567  and  _568
REMARK  230  A    between atoms: _570  and  _572
REMARK  231  A    between atoms: _572  and  _573
REMARK  232  A    between atoms: _572  and  _575
REMARK  233  A    between atoms: _575  and  _576
REMARK  234  A    between atoms: _576  and  _577
REMARK  235  A    between atoms: _577  and  _578
REMARK  236  A    between atoms: _587  and  _589
REMARK  237  A    between atoms: _589  and  _590
REMARK  238  A    between atoms: _589  and  _592
REMARK  239  A    between atoms: _592  and  _593
REMARK                            x       y       z     vdW  Elec       q    Type
REMARK                         _______ _______ _______ _____ _____    ______ ____
ROOT
ATOM      1  CA  VAL A   6      13.241  28.176  11.365  0.00  0.00    +0.149 C 
ENDROOT
BRANCH   1   2
ATOM      2  C   VAL A   6      13.594  29.648  11.342  0.00  0.00    +0.241 C 
ATOM      3  N   ILE A   7      12.818  30.452  12.049  0.00  0.00    -0.297 N 
ATOM      4  H   ILE A   7      11.942  30.061  12.452  0.00  0.00    +0.150 HD
ATOM      5  O   VAL A   6      14.559  30.059  10.719  0.00  0.00    -0.273 OA
BRANCH   3   6
ATOM      6  CA  ILE A   7      13.124  31.860  12.295  0.00  0.00    +0.149 C 
BRANCH   6   7
ATOM      7  C   ILE A   7      13.747  31.876  13.690  0.00  0.00    +0.241 C 
ATOM      8  O   ILE A   7      13.097  31.505  14.687  0.00  0.00    -0.273 OA
ATOM      9  N   GLY A   8      15.000  32.251  13.768  0.00  0.00    -0.295 N 
ATOM     10  H   GLY A   8      15.493  32.539  12.899  0.00  0.00    +0.150 HD
BRANCH   9  11
ATOM     11  CA  GLY A   8      15.721  32.278  15.023  0.00  0.00    +0.176 C 
BRANCH  11  12
ATOM     12  C   GLY A   8      15.836  33.692  15.566  0.00  0.00    +0.243 C 
ATOM     13  N   ARG A   9      16.590  33.778  16.668  0.00  0.00    -0.294 N 
ATOM     14  H   ARG A   9      17.165  32.965  16.969  0.00  0.00    +0.150 HD
ATOM     15  O   GLY A   8      15.293  34.669  15.053  0.00  0.00    -0.273 OA
BRANCH  13  16
ATOM     16  CA  ARG A   9      16.607  35.016  17.452  0.00  0.00    +0.171 C 
BRANCH  16  17
ATOM     17  C   ARG A   9      17.114  36.173  16.674  0.00  0.00    +0.245 C 
ATOM     18  O   ARG A   9      16.708  37.312  16.958  0.00  0.00    -0.273 OA
ATOM     19  N   ASN A  10      18.010  35.996  15.723  0.00  0.00    -0.297 N 
ATOM     20  H   ASN A  10      18.310  35.032  15.471  0.00  0.00    +0.150 HD
BRANCH  19  21
ATOM     21  CA  ASN A  10      18.584  37.136  15.021  0.00  0.00    +0.146 C 
BRANCH  21  22
ATOM     22  C   ASN A  10      17.515  37.927  14.298  0.00  0.00    +0.227 C 
ATOM     23  O   ASN A  10      17.720  39.115  14.078  0.00  0.00    -0.286 OA
ENDBRANCH  21  22
BRANCH  21  24
ATOM     24  CB  ASN A  10      19.644  36.664  14.030  0.00  0.00    +0.112 C 
BRANCH  24  25
ATOM     25  CG  ASN A  10      19.104  35.942  12.822  0.00  0.00    +0.222 C 
ATOM     26  OD1 ASN A  10      18.366  34.966  12.928  0.00  0.00    -0.275 OA
ATOM     27  ND2 ASN A  10      19.488  36.436  11.656  0.00  0.00    -0.329 N 
ATOM     28 HD21 ASN A  10      20.115  37.265  11.624  0.00  0.00    +0.145 HD
ATOM     29 HD22 ASN A  10      19.163  35.995  10.772  0.00  0.00    +0.145 HD
ENDBRANCH  24  25
ENDBRANCH  21  24
ENDBRANCH  19  21
ENDBRANCH  16  17
BRANCH  16  30
ATOM     30  CB  ARG A   9      17.413  34.802  18.731  0.00  0.00    +0.001 C 
ATOM     31  CG  ARG A   9      16.826  33.843  19.714  0.00  0.00    +0.014 C 
BRANCH  31  32
ATOM     32  CD  ARG A   9      17.531  33.778  21.056  0.00  0.00    +0.200 C 
BRANCH  32  33
ATOM     33  NE  ARG A   9      18.920  33.293  20.897  0.00  0.00    -0.261 N 
ATOM     34  HE  ARG A   9      19.061  32.264  20.837  0.00  0.00    +0.259 HD
ATOM     35  CZ  ARG A   9      20.000  34.059  20.825  0.00  0.00    +0.342 C 
ATOM     36  NH2 ARG A   9      19.969  35.386  20.943  0.00  0.00    -0.292 N 
ATOM     37 HH21 ARG A   9      19.064  35.873  21.100  0.00  0.00    +0.255 HD
ATOM     38 HH22 ARG A   9      20.850  35.935  20.878  0.00  0.00    +0.255 HD
ATOM     39  NH1 ARG A   9      21.177  33.484  20.646  0.00  0.00    -0.292 N 
ATOM     40 HH11 ARG A   9      22.037  34.066  20.587  0.00  0.00    +0.255 HD
ATOM     41 HH12 ARG A   9      21.243  32.449  20.564  0.00  0.00    +0.255 HD
ENDBRANCH  32  33
ENDBRANCH  31  32
ENDBRANCH  16  30
ENDBRANCH  13  16
ENDBRANCH  11  12
ENDBRANCH   9  11
ENDBRANCH   6   7
BRANCH   6  42
ATOM     42  CB  ILE A   7      11.894  32.783  12.262  0.00  0.00    +0.027 C 
ATOM     43  CG2 ILE A   7      12.257  34.247  12.537  0.00  0.00    +0.002 C 
BRANCH  42  44
ATOM     44  CG1 ILE A   7      11.110  32.659  10.962  0.00  0.00    +0.002 C 
ATOM     45  CD1 ILE A   7      11.983  32.906   9.723  0.00  0.00    +0.000 C 
ENDBRANCH  42  44
ENDBRANCH   6  42
ENDBRANCH   3   6
ENDBRANCH   1   2
BRANCH   1  48
ATOM     46  C   ASN A   5      12.147  26.998   9.540  0.00  0.00    +0.241 C 
ATOM     47  O   ASN A   5      11.066  26.870  10.134  0.00  0.00    -0.273 OA
ATOM     48  N   VAL A   6      13.212  27.640  10.022  0.00  0.00    -0.297 N 
ATOM     49  H   VAL A   6      14.047  27.759   9.414  0.00  0.00    +0.150 HD
BRANCH  46  50
ATOM     50  CA  ASN A   5      12.288  26.392   8.150  0.00  0.00    +0.158 C 
BRANCH  50  53
ATOM     51  C   VAL A   4      12.568  24.085   8.883  0.00  0.00    +0.241 C 
ATOM     52  O   VAL A   4      13.703  24.343   9.323  0.00  0.00    -0.273 OA
ATOM     53  N   ASN A   5      11.849  24.994   8.233  0.00  0.00    -0.297 N 
ATOM     54  H   ASN A   5      10.960  24.710   7.775  0.00  0.00    +0.150 HD
BRANCH  51  55
ATOM     55  CA  VAL A   4      11.996  22.706   9.127  0.00  0.00    +0.149 C 
BRANCH  55  57
ATOM     56  C   PRO A   3      12.786  20.561   8.227  0.00  0.00    +0.241 C 
ATOM     57  N   VAL A   4      12.997  21.744   8.779  0.00  0.00    -0.297 N 
ATOM     58  H   VAL A   4      13.985  22.000   8.979  0.00  0.00    +0.150 HD
ATOM     59  O   PRO A   3      11.679  20.171   7.868  0.00  0.00    -0.273 OA
BRANCH  56  65
ATOM     60  C   THR A   2      15.684  21.101   7.202  0.00  0.00    +0.246 C 
ATOM     61  N   PRO A   3      15.283  20.276   8.153  0.00  0.00    -0.272 N 
ATOM     62  CD  PRO A   3      16.055  19.877   9.355  0.00  0.00    +0.094 C 
ATOM     63  CG  PRO A   3      15.152  18.865  10.006  0.00  0.00    +0.024 C 
ATOM     64  CB  PRO A   3      13.994  18.569   9.168  0.00  0.00    +0.031 C 
ATOM     65  CA  PRO A   3      13.977  19.619   8.052  0.00  0.00    +0.152 C 
ATOM     66  O   THR A   2      14.987  21.322   6.217  0.00  0.00    -0.273 OA
BRANCH  60  67
ATOM     67  CA  THR A   2      17.025  21.798   7.366  0.00  0.00    +0.176 C 
BRANCH  67  70
ATOM     68  C   PRO A   1      18.381  20.771   5.646  0.00  0.00    +0.239 C 
ATOM     69  O   PRO A   1      18.456  19.737   6.293  0.00  0.00    -0.274 OA
ATOM     70  N   THR A   2      17.712  21.827   6.096  0.00  0.00    -0.295 N 
ATOM     71  H   THR A   2      17.682  22.693   5.521  0.00  0.00    +0.150 HD
BRANCH  68  73
ATOM     72  N   PRO A   1      19.952  22.046   4.144  0.00  0.00    -0.210 NA
ATOM     73  CA  PRO A   1      19.008  20.940   4.269  0.00  0.00    +0.149 C 
ATOM     74  CB  PRO A   1      19.861  19.714   3.936  0.00  0.00    +0.028 C 
ATOM     75  CG  PRO A   1      21.222  20.115   4.425  0.00  0.00    +0.021 C 
ATOM     76  CD  PRO A   1      21.328  21.595   4.114  0.00  0.00    +0.089 C 
ENDBRANCH  68  73
ENDBRANCH  67  70
BRANCH  67  77
ATOM     77  CB  THR A   2      16.794  23.223   7.903  0.00  0.00    +0.137 C 
ATOM     78  CG2 THR A   2      16.023  24.134   6.961  0.00  0.00    +0.034 C 
BRANCH  77  79
ATOM     79  OG1 THR A   2      16.060  23.078   9.129  0.00  0.00    -0.382 OA
ATOM     80  HG1 THR A   2      15.886  23.973   9.516  0.00  0.00    +0.210 HD
ENDBRANCH  77  79
ENDBRANCH  67  77
ENDBRANCH  60  67
ENDBRANCH  56  65
ENDBRANCH  55  57
BRANCH  55  81
ATOM     81  CB  VAL A   4      11.586  22.586  10.634  0.00  0.00    +0.027 C 
ATOM     82  CG2 VAL A   4      10.523  23.569  11.004  0.00  0.00    +0.002 C 
ATOM     83  CG1 VAL A   4      11.105  21.173  10.990  0.00  0.00    +0.002 C 
ENDBRANCH  55  81
ENDBRANCH  51  55
ENDBRANCH  50  53
BRANCH  50  84
ATOM     84  CB  ASN A   5      11.423  27.155   7.165  0.00  0.00    +0.114 C 
BRANCH  84  85
ATOM     85  CG  ASN A   5      11.545  26.653   5.752  0.00  0.00    +0.222 C 
ATOM     86  OD1 ASN A   5      12.617  26.235   5.291  0.00  0.00    -0.275 OA
ATOM     87  ND2 ASN A   5      10.407  26.674   5.062  0.00  0.00    -0.329 N 
ATOM     88 HD21 ASN A   5       9.538  27.037   5.503  0.00  0.00    +0.145 HD
ATOM     89 HD22 ASN A   5      10.387  26.327   4.082  0.00  0.00    +0.145 HD
ENDBRANCH  84  85
ENDBRANCH  50  84
ENDBRANCH  46  50
ENDBRANCH   1  48
BRANCH   1  90
ATOM     90  CB  VAL A   6      14.333  27.408  12.150  0.00  0.00    +0.027 C 
ATOM     91  CG2 VAL A   6      14.852  28.185  13.327  0.00  0.00    +0.002 C 
ATOM     92  CG1 VAL A   6      13.771  26.076  12.618  0.00  0.00    +0.002 C 
ENDBRANCH   1  90
TORSDOF 31
REMARK  Name = ../refined-set-2016/2aoc/2aoc_pocket.pdb
REMARK  239 active torsions:
REMARK  status: ('A' for Active; 'I' for Inactive)
REMARK    1  A    between atoms: _1  and  _3
REMARK    2  A    between atoms: _3  and  _4
REMARK    3  A    between atoms: _3  and  _6
REMARK    4  A    between atoms: _6  and  _7
REMARK    5  A    between atoms: _7  and  _8
REMARK    6  A    between atoms: _8  and  _9
REMARK    7  A    between atoms: _18  and  _20
REMARK    8  A    between atoms: _20  and  _21
REMARK    9  A    between atoms: _20  and  _23
REMARK   10  A    between atoms: _23  and  _24
REMARK   11  A    between atoms: _27  and  _29
REMARK   12  A    between atoms: _29  and  _30
REMARK   13  A    between atoms: _29  and  _32
REMARK   14  A    between atoms: _33  and  _34
REMARK   15  A    between atoms: _37  and  _39
REMARK   16  A    between atoms: _39  and  _40
REMARK   17  A    between atoms: _39  and  _42
REMARK   18  A    between atoms: _42  and  _43
REMARK   19  A    between atoms: _46  and  _48
REMARK   20  A    between atoms: _48  and  _49
REMARK   21  A    between atoms: _48  and  _51
REMARK   22  A    between atoms: _51  and  _52
REMARK   23  A    between atoms: _55  and  _57
REMARK   24  A    between atoms: _57  and  _58
REMARK   25  A    between atoms: _57  and  _60
REMARK   26  A    between atoms: _60  and  _61
REMARK   27  A    between atoms: _64  and  _66
REMARK   28  A    between atoms: _66  and  _67
REMARK   29  A    between atoms: _66  and  _69
REMARK   30  A    between atoms: _69  and  _70
REMARK   31  A    between atoms: _73  and  _75
REMARK   32  A    between atoms: _75  and  _76
REMARK   33  A    between atoms: _78  and  _80
REMARK   34  A    between atoms: _80  and  _81
REMARK   35  A    between atoms: _84  and  _86
REMARK   36  A    between atoms: _86  and  _87
REMARK   37  A    between atoms: _86  and  _89
REMARK   38  A    between atoms: _89  and  _90
REMARK   39  A    between atoms: _93  and  _95
REMARK   40  A    between atoms: _95  and  _96
REMARK   41  A    between atoms: _95  and  _98
REMARK   42  A    between atoms: _98  and  _99
REMARK   43  A    between atoms: _102  and  _104
REMARK   44  A    between atoms: _104  and  _105
REMARK   45  A    between atoms: _104  and  _107
REMARK   46  A    between atoms: _107  and  _108
REMARK   47  A    between atoms: _111  and  _113
REMARK   48  A    between atoms: _113  and  _114
REMARK   49  A    between atoms: _113  and  _116
REMARK   50  A    between atoms: _119  and  _121
REMARK   51  A    between atoms: _121  and  _122
REMARK   52  A    between atoms: _121  and  _124
REMARK   53  A    between atoms: _124  and  _125
REMARK   54  A    between atoms: _125  and  _126
REMARK   55  A    between atoms: _126  and  _127
REMARK   56  A    between atoms: _127  and  _128
REMARK   57  A    between atoms: _132  and  _134
REMARK   58  A    between atoms: _134  and  _135
REMARK   59  A    between atoms: _134  and  _137
REMARK   60  A    between atoms: _137  and  _138
REMARK   61  A    between atoms: _138  and  _139
REMARK   62  A    between atoms: _141  and  _143
REMARK   63  A    between atoms: _143  and  _144
REMARK   64  A    between atoms: _143  and  _146
REMARK   65  A    between atoms: _146  and  _147
REMARK   66  A    between atoms: _150  and  _152
REMARK   67  A    between atoms: _152  and  _153
REMARK   68  A    between atoms: _155  and  _157
REMARK   69  A    between atoms: _157  and  _158
REMARK   70  A    between atoms: _160  and  _162
REMARK   71  A    between atoms: _162  and  _163
REMARK   72  A    between atoms: _162  and  _165
REMARK   73  A    between atoms: _165  and  _166
REMARK   74  A    between atoms: _169  and  _171
REMARK   75  A    between atoms: _171  and  _172
REMARK   76  A    between atoms: _174  and  _176
REMARK   77  A    between atoms: _176  and  _177
REMARK   78  A    between atoms: _179  and  _181
REMARK   79  A    between atoms: _181  and  _182
REMARK   80  A    between atoms: _181  and  _184
REMARK   81  A    between atoms: _184  and  _185
REMARK   82  A    between atoms: _191  and  _193
REMARK   83  A    between atoms: _193  and  _194
REMARK   84  A    between atoms: _193  and  _196
REMARK   85  A    between atoms: _196  and  _197
REMARK   86  A    between atoms: _200  and  _202
REMARK   87  A    between atoms: _202  and  _203
REMARK   88  A    between atoms: _202  and  _205
REMARK   89  A    between atoms: _208  and  _210
REMARK   90  A    between atoms: _210  and  _211
REMARK   91  A    between atoms: _210  and  _213
REMARK   92  A    between atoms: _213  and  _214
REMARK   93  A    between atoms: _218  and  _219
REMARK   94  A    between atoms: _224  and  _226
REMARK   95  A    between atoms: _226  and  _227
REMARK   96  A    between atoms: _226  and  _229
REMARK   97  A    between atoms: _229  and  _230
REMARK   98  A    between atoms: _234  and  _235
REMARK   99  A    between atoms: _240  and  _242
REMARK  100  A    between atoms: _242  and  _243
REMARK  101  A    between atoms: _242  and  _245
REMARK  102  A    between atoms: _248  and  _250
REMARK  103  A    between atoms: _250  and  _251
REMARK  104  A    between atoms: _250  and  _253
REMARK  105  A    between atoms: _253  and  _254
REMARK  106  A    between atoms: _259  and  _261
REMARK  107  A    between atoms: _261  and  _262
REMARK  108  A    between atoms: _261  and  _264
REMARK  109  A    between atoms: _267  and  _269
REMARK  110  A    between atoms: _269  and  _270
REMARK  111  A    between atoms: _269  and  _272
REMARK  112  A    between atoms: _272  and  _273
REMARK  113  A    between atoms: _276  and  _278
REMARK  114  A    between atoms: _278  and  _279
REMARK  115  A    between atoms: _281  and  _283
REMARK  116  A    between atoms: _283  and  _284
REMARK  117  A    between atoms: _283  and  _286
REMARK  118  A    between atoms: _287  and  _288
REMARK  119  A    between atoms: _288  and  _289
REMARK  120  A    between atoms: _298  and  _300
REMARK  121  A    between atoms: _300  and  _301
REMARK  122  A    between atoms: _300  and  _303
REMARK  123  A    between atoms: _303  and  _304
REMARK  124  A    between atoms: _309  and  _311
REMARK  125  A    between atoms: _311  and  _312
REMARK  126  A    between atoms: _311  and  _314
REMARK  127  A    between atoms: _314  and  _315
REMARK  128  A    between atoms: _315  and  _316
REMARK  129  A    between atoms: _316  and  _317
REMARK  130  A    between atoms: _326  and  _328
REMARK  131  A    between atoms: _328  and  _329
REMARK  132  A    between atoms: _328  and  _331
REMARK  133  A    between atoms: _331  and  _332
REMARK  134  A    between atoms: _335  and  _337
REMARK  135  A    between atoms: _337  and  _338
REMARK  136  A    between atoms: _337  and  _340
REMARK  137  A    between atoms: _340  and  _341
REMARK  138  A    between atoms: _344  and  _346
REMARK  139  A    between atoms: _346  and  _347
REMARK  140  A    between atoms: _346  and  _349
REMARK  141  A    between atoms: _349  and  _350
REMARK  142  A    between atoms: _353  and  _355
REMARK  143  A    between atoms: _355  and  _356
REMARK  144  A    between atoms: _355  and  _358
REMARK  145  A    between atoms: _358  and  _359
REMARK  146  A    between atoms: _362  and  _364
REMARK  147  A    between atoms: _364  and  _365
REMARK  148  A    between atoms: _367  and  _369
REMARK  149  A    between atoms: _369  and  _370
REMARK  150  A    between atoms: _373  and  _375
REMARK  151  A    between atoms: _375  and  _376
REMARK  152  A    between atoms: _375  and  _378
REMARK  153  A    between atoms: _378  and  _379
REMARK  154  A    between atoms: _382  and  _384
REMARK  155  A    between atoms: _384  and  _385
REMARK  156  A    between atoms: _384  and  _387
REMARK  157  A    between atoms: _387  and  _388
REMARK  158  A    between atoms: _391  and  _393
REMARK  159  A    between atoms: _393  and  _394
REMARK  160  A    between atoms: _393  and  _396
REMARK  161  A    between atoms: _396  and  _397
REMARK  162  A    between atoms: _400  and  _402
REMARK  163  A    between atoms: _402  and  _403
REMARK  164  A    between atoms: _402  and  _405
REMARK  165  A    between atoms: _408  and  _410
REMARK  166  A    between atoms: _410  and  _411
REMARK  167  A    between atoms: _410  and  _413
REMARK  168  A    between atoms: _413  and  _414
REMARK  169  A    between atoms: _414  and  _415
REMARK  170  A    between atoms: _415  and  _416
REMARK  171  A    between atoms: _416  and  _417
REMARK  172  A    between atoms: _421  and  _423
REMARK  173  A    between atoms: _423  and  _424
REMARK  174  A    between atoms: _423  and  _426
REMARK  175  A    between atoms: _426  and  _427
REMARK  176  A    between atoms: _427  and  _428
REMARK  177  A    between atoms: _430  and  _432
REMARK  178  A    between atoms: _432  and  _433
REMARK  179  A    between atoms: _432  and  _435
REMARK  180  A    between atoms: _435  and  _436
REMARK  181  A    between atoms: _439  and  _441
REMARK  182  A    between atoms: _441  and  _442
REMARK  183  A    between atoms: _444  and  _446
REMARK  184  A    between atoms: _446  and  _447
REMARK  185  A    between atoms: _449  and  _451
REMARK  186  A    between atoms: _451  and  _452
REMARK  187  A    between atoms: _451  and  _454
REMARK  188  A    between atoms: _454  and  _455
REMARK  189  A    between atoms: _458  and  _460
REMARK  190  A    between atoms: _460  and  _461
REMARK  191  A    between atoms: _463  and  _465
REMARK  192  A    between atoms: _465  and  _466
REMARK  193  A    between atoms: _468  and  _470
REMARK  194  A    between atoms: _470  and  _471
REMARK  195  A    between atoms: _470  and  _473
REMARK  196  A    between atoms: _473  and  _474
REMARK  197  A    between atoms: _480  and  _482
REMARK  198  A    between atoms: _482  and  _483
REMARK  199  A    between atoms: _482  and  _485
REMARK  200  A    between atoms: _485  and  _486
REMARK  201  A    between atoms: _489  and  _491
REMARK  202  A    between atoms: _491  and  _492
REMARK  203  A    between atoms: _491  and  _494
REMARK  204  A    between atoms: _497  and  _499
REMARK  205  A    between atoms: _499  and  _500
REMARK  206  A    between atoms: _499  and  _502
REMARK  207  A    between atoms: _502  and  _503
REMARK  208  A    between atoms: _507  and  _508
REMARK  209  A    between atoms: _513  and  _515
REMARK  210  A    between atoms: _515  and  _516
REMARK  211  A    between atoms: _515  and  _518
REMARK  212  A    between atoms: _518  and  _519
REMARK  213  A    between atoms: _523  and  _524
REMARK  214  A    between atoms: _529  and  _531
REMARK  215  A    between atoms: _531  and  _532
REMARK  216  A    between atoms: _531  and  _534
REMARK  217  A    between atoms: _537  and  _539
REMARK  218  A    between atoms: _539  and  _540
REMARK  219  A    between atoms: _539  and  _542
REMARK  220  A    between atoms: _542  and  _543
REMARK  221  A    between atoms: _548  and  _550
REMARK  222  A    between atoms: _550  and  _551
REMARK  223  A    between atoms: _550  and  _553
REMARK  224  A    between atoms: _556  and  _558
REMARK  225  A    between atoms: _558  and  _559
REMARK  226  A    between atoms: _558  and  _561
REMARK  227  A    between atoms: _561  and  _562
REMARK  228  A    between atoms: _565  and  _567
REMARK  229  A    between atoms: _567  and  _568
REMARK  230  A    between atoms: _570  and  _572
REMARK  231  A    between atoms: _572  and  _573
REMARK  232  A    between atoms: _572  and  _575
REMARK  233  A    between atoms: _575  and  _576
REMARK  234  A    between atoms: _576  and  _577
REMARK  235  A    between atoms: _577  and  _578
REMARK  236  A    between atoms: _587  and  _589
REMARK  237  A    between atoms: _589  and  _590
REMARK  238  A    between atoms: _589  and  _592
REMARK  239  A    between atoms: _592  and  _593
REMARK                            x       y       z     vdW  Elec       q    Type
REMARK                         _______ _______ _______ _____ _____    ______ ____
ROOT
ATOM      1  NE  ARG A   1      23.125  30.160  22.470  0.00  0.00    -0.265 N 
ATOM      2  CZ  ARG A   1      24.312  29.603  22.423  0.00  0.00    +0.342 C 
ATOM      3  NH2 ARG A   1      24.929  29.166  23.520  0.00  0.00    -0.292 N 
ATOM      4 HH21 ARG A   1      24.470  29.262  24.448  0.00  0.00    +0.255 HD
ATOM      5 HH22 ARG A   1      25.870  28.729  23.448  0.00  0.00    +0.255 HD
ATOM      6  NH1 ARG A   1      24.933  29.458  21.268  0.00  0.00    -0.292 N 
ATOM      7 HH11 ARG A   1      25.874  29.016  21.235  0.00  0.00    +0.255 HD
ATOM      8 HH12 ARG A   1      24.482  29.786  20.390  0.00  0.00    +0.255 HD
ATOM      9  HE  ARG A   1      22.696  30.477  21.577  0.00  0.00    +0.259 HD
ENDROOT
BRANCH   1  10
ATOM     10  CD  ARG A   1      22.355  30.365  23.735  0.00  0.00    +0.174 C 
BRANCH  10  11
ATOM     11  CG  ARG A   1      21.385  31.492  23.462  0.00  0.00    +0.045 C 
BRANCH  11  12
ATOM     12  CB  ARG A   1      20.591  31.825  24.685  0.00  0.00    +0.029 C 
BRANCH  12  13
ATOM     13  CA  ARG A   1      19.659  33.020  24.531  0.00  0.00    +0.133 C 
BRANCH  13  14
ATOM     14  N   ARG A   1      20.421  34.260  24.404  0.00  0.00    -0.239 NA
ATOM     15  H   ARG A   1      21.460  34.236  24.429  0.00  0.00    +0.142 HD
ENDBRANCH  13  14
BRANCH  13  16
ATOM     16  C   ARG A   1      18.760  33.096  25.774  0.00  0.00    +0.224 C 
ATOM     17  O   ARG A   1      19.197  33.565  26.832  0.00  0.00    -0.287 OA
ENDBRANCH  13  16
ENDBRANCH  12  13
ENDBRANCH  11  12
ENDBRANCH  10  11
ENDBRANCH   1  10
TORSDOF 6
REMARK  Name = ../refined-set-2016/2aoc/2aoc_pocket.pdb
REMARK  239 active torsions:
REMARK  status: ('A' for Active; 'I' for Inactive)
REMARK    1  A    between atoms: _1  and  _3
REMARK    2  A    between atoms: _3  and  _4
REMARK    3  A    between atoms: _3  and  _6
REMARK    4  A    between atoms: _6  and  _7
REMARK    5  A    between atoms: _7  and  _8
REMARK    6  A    between atoms: _8  and  _9
REMARK    7  A    between atoms: _18  and  _20
REMARK    8  A    between atoms: _20  and  _21
REMARK    9  A    between atoms: _20  and  _23
REMARK   10  A    between atoms: _23  and  _24
REMARK   11  A    between atoms: _27  and  _29
REMARK   12  A    between atoms: _29  and  _30
REMARK   13  A    between atoms: _29  and  _32
REMARK   14  A    between atoms: _33  and  _34
REMARK   15  A    between atoms: _37  and  _39
REMARK   16  A    between atoms: _39  and  _40
REMARK   17  A    between atoms: _39  and  _42
REMARK   18  A    between atoms: _42  and  _43
REMARK   19  A    between atoms: _46  and  _48
REMARK   20  A    between atoms: _48  and  _49
REMARK   21  A    between atoms: _48  and  _51
REMARK   22  A    between atoms: _51  and  _52
REMARK   23  A    between atoms: _55  and  _57
REMARK   24  A    between atoms: _57  and  _58
REMARK   25  A    between atoms: _57  and  _60
REMARK   26  A    between atoms: _60  and  _61
REMARK   27  A    between atoms: _64  and  _66
REMARK   28  A    between atoms: _66  and  _67
REMARK   29  A    between atoms: _66  and  _69
REMARK   30  A    between atoms: _69  and  _70
REMARK   31  A    between atoms: _73  and  _75
REMARK   32  A    between atoms: _75  and  _76
REMARK   33  A    between atoms: _78  and  _80
REMARK   34  A    between atoms: _80  and  _81
REMARK   35  A    between atoms: _84  and  _86
REMARK   36  A    between atoms: _86  and  _87
REMARK   37  A    between atoms: _86  and  _89
REMARK   38  A    between atoms: _89  and  _90
REMARK   39  A    between atoms: _93  and  _95
REMARK   40  A    between atoms: _95  and  _96
REMARK   41  A    between atoms: _95  and  _98
REMARK   42  A    between atoms: _98  and  _99
REMARK   43  A    between atoms: _102  and  _104
REMARK   44  A    between atoms: _104  and  _105
REMARK   45  A    between atoms: _104  and  _107
REMARK   46  A    between atoms: _107  and  _108
REMARK   47  A    between atoms: _111  and  _113
REMARK   48  A    between atoms: _113  and  _114
REMARK   49  A    between atoms: _113  and  _116
REMARK   50  A    between atoms: _119  and  _121
REMARK   51  A    between atoms: _121  and  _122
REMARK   52  A    between atoms: _121  and  _124
REMARK   53  A    between atoms: _124  and  _125
REMARK   54  A    between atoms: _125  and  _126
REMARK   55  A    between atoms: _126  and  _127
REMARK   56  A    between atoms: _127  and  _128
REMARK   57  A    between atoms: _132  and  _134
REMARK   58  A    between atoms: _134  and  _135
REMARK   59  A    between atoms: _134  and  _137
REMARK   60  A    between atoms: _137  and  _138
REMARK   61  A    between atoms: _138  and  _139
REMARK   62  A    between atoms: _141  and  _143
REMARK   63  A    between atoms: _143  and  _144
REMARK   64  A    between atoms: _143  and  _146
REMARK   65  A    between atoms: _146  and  _147
REMARK   66  A    between atoms: _150  and  _152
REMARK   67  A    between atoms: _152  and  _153
REMARK   68  A    between atoms: _155  and  _157
REMARK   69  A    between atoms: _157  and  _158
REMARK   70  A    between atoms: _160  and  _162
REMARK   71  A    between atoms: _162  and  _163
REMARK   72  A    between atoms: _162  and  _165
REMARK   73  A    between atoms: _165  and  _166
REMARK   74  A    between atoms: _169  and  _171
REMARK   75  A    between atoms: _171  and  _172
REMARK   76  A    between atoms: _174  and  _176
REMARK   77  A    between atoms: _176  and  _177
REMARK   78  A    between atoms: _179  and  _181
REMARK   79  A    between atoms: _181  and  _182
REMARK   80  A    between atoms: _181  and  _184
REMARK   81  A    between atoms: _184  and  _185
REMARK   82  A    between atoms: _191  and  _193
REMARK   83  A    between atoms: _193  and  _194
REMARK   84  A    between atoms: _193  and  _196
REMARK   85  A    between atoms: _196  and  _197
REMARK   86  A    between atoms: _200  and  _202
REMARK   87  A    between atoms: _202  and  _203
REMARK   88  A    between atoms: _202  and  _205
REMARK   89  A    between atoms: _208  and  _210
REMARK   90  A    between atoms: _210  and  _211
REMARK   91  A    between atoms: _210  and  _213
REMARK   92  A    between atoms: _213  and  _214
REMARK   93  A    between atoms: _218  and  _219
REMARK   94  A    between atoms: _224  and  _226
REMARK   95  A    between atoms: _226  and  _227
REMARK   96  A    between atoms: _226  and  _229
REMARK   97  A    between atoms: _229  and  _230
REMARK   98  A    between atoms: _234  and  _235
REMARK   99  A    between atoms: _240  and  _242
REMARK  100  A    between atoms: _242  and  _243
REMARK  101  A    between atoms: _242  and  _245
REMARK  102  A    between atoms: _248  and  _250
REMARK  103  A    between atoms: _250  and  _251
REMARK  104  A    between atoms: _250  and  _253
REMARK  105  A    between atoms: _253  and  _254
REMARK  106  A    between atoms: _259  and  _261
REMARK  107  A    between atoms: _261  and  _262
REMARK  108  A    between atoms: _261  and  _264
REMARK  109  A    between atoms: _267  and  _269
REMARK  110  A    between atoms: _269  and  _270
REMARK  111  A    between atoms: _269  and  _272
REMARK  112  A    between atoms: _272  and  _273
REMARK  113  A    between atoms: _276  and  _278
REMARK  114  A    between atoms: _278  and  _279
REMARK  115  A    between atoms: _281  and  _283
REMARK  116  A    between atoms: _283  and  _284
REMARK  117  A    between atoms: _283  and  _286
REMARK  118  A    between atoms: _287  and  _288
REMARK  119  A    between atoms: _288  and  _289
REMARK  120  A    between atoms: _298  and  _300
REMARK  121  A    between atoms: _300  and  _301
REMARK  122  A    between atoms: _300  and  _303
REMARK  123  A    between atoms: _303  and  _304
REMARK  124  A    between atoms: _309  and  _311
REMARK  125  A    between atoms: _311  and  _312
REMARK  126  A    between atoms: _311  and  _314
REMARK  127  A    between atoms: _314  and  _315
REMARK  128  A    between atoms: _315  and  _316
REMARK  129  A    between atoms: _316  and  _317
REMARK  130  A    between atoms: _326  and  _328
REMARK  131  A    between atoms: _328  and  _329
REMARK  132  A    between atoms: _328  and  _331
REMARK  133  A    between atoms: _331  and  _332
REMARK  134  A    between atoms: _335  and  _337
REMARK  135  A    between atoms: _337  and  _338
REMARK  136  A    between atoms: _337  and  _340
REMARK  137  A    between atoms: _340  and  _341
REMARK  138  A    between atoms: _344  and  _346
REMARK  139  A    between atoms: _346  and  _347
REMARK  140  A    between atoms: _346  and  _349
REMARK  141  A    between atoms: _349  and  _350
REMARK  142  A    between atoms: _353  and  _355
REMARK  143  A    between atoms: _355  and  _356
REMARK  144  A    between atoms: _355  and  _358
REMARK  145  A    between atoms: _358  and  _359
REMARK  146  A    between atoms: _362  and  _364
REMARK  147  A    between atoms: _364  and  _365
REMARK  148  A    between atoms: _367  and  _369
REMARK  149  A    between atoms: _369  and  _370
REMARK  150  A    between atoms: _373  and  _375
REMARK  151  A    between atoms: _375  and  _376
REMARK  152  A    between atoms: _375  and  _378
REMARK  153  A    between atoms: _378  and  _379
REMARK  154  A    between atoms: _382  and  _384
REMARK  155  A    between atoms: _384  and  _385
REMARK  156  A    between atoms: _384  and  _387
REMARK  157  A    between atoms: _387  and  _388
REMARK  158  A    between atoms: _391  and  _393
REMARK  159  A    between atoms: _393  and  _394
REMARK  160  A    between atoms: _393  and  _396
REMARK  161  A    between atoms: _396  and  _397
REMARK  162  A    between atoms: _400  and  _402
REMARK  163  A    between atoms: _402  and  _403
REMARK  164  A    between atoms: _402  and  _405
REMARK  165  A    between atoms: _408  and  _410
REMARK  166  A    between atoms: _410  and  _411
REMARK  167  A    between atoms: _410  and  _413
REMARK  168  A    between atoms: _413  and  _414
REMARK  169  A    between atoms: _414  and  _415
REMARK  170  A    between atoms: _415  and  _416
REMARK  171  A    between atoms: _416  and  _417
REMARK  172  A    between atoms: _421  and  _423
REMARK  173  A    between atoms: _423  and  _424
REMARK  174  A    between atoms: _423  and  _426
REMARK  175  A    between atoms: _426  and  _427
REMARK  176  A    between atoms: _427  and  _428
REMARK  177  A    between atoms: _430  and  _432
REMARK  178  A    between atoms: _432  and  _433
REMARK  179  A    between atoms: _432  and  _435
REMARK  180  A    between atoms: _435  and  _436
REMARK  181  A    between atoms: _439  and  _441
REMARK  182  A    between atoms: _441  and  _442
REMARK  183  A    between atoms: _444  and  _446
REMARK  184  A    between atoms: _446  and  _447
REMARK  185  A    between atoms: _449  and  _451
REMARK  186  A    between atoms: _451  and  _452
REMARK  187  A    between atoms: _451  and  _454
REMARK  188  A    between atoms: _454  and  _455
REMARK  189  A    between atoms: _458  and  _460
REMARK  190  A    between atoms: _460  and  _461
REMARK  191  A    between atoms: _463  and  _465
REMARK  192  A    between atoms: _465  and  _466
REMARK  193  A    between atoms: _468  and  _470
REMARK  194  A    between atoms: _470  and  _471
REMARK  195  A    between atoms: _470  and  _473
REMARK  196  A    between atoms: _473  and  _474
REMARK  197  A    between atoms: _480  and  _482
REMARK  198  A    between atoms: _482  and  _483
REMARK  199  A    between atoms: _482  and  _485
REMARK  200  A    between atoms: _485  and  _486
REMARK  201  A    between atoms: _489  and  _491
REMARK  202  A    between atoms: _491  and  _492
REMARK  203  A    between atoms: _491  and  _494
REMARK  204  A    between atoms: _497  and  _499
REMARK  205  A    between atoms: _499  and  _500
REMARK  206  A    between atoms: _499  and  _502
REMARK  207  A    between atoms: _502  and  _503
REMARK  208  A    between atoms: _507  and  _508
REMARK  209  A    between atoms: _513  and  _515
REMARK  210  A    between atoms: _515  and  _516
REMARK  211  A    between atoms: _515  and  _518
REMARK  212  A    between atoms: _518  and  _519
REMARK  213  A    between atoms: _523  and  _524
REMARK  214  A    between atoms: _529  and  _531
REMARK  215  A    between atoms: _531  and  _532
REMARK  216  A    between atoms: _531  and  _534
REMARK  217  A    between atoms: _537  and  _539
REMARK  218  A    between atoms: _539  and  _540
REMARK  219  A    between atoms: _539  and  _542
REMARK  220  A    between atoms: _542  and  _543
REMARK  221  A    between atoms: _548  and  _550
REMARK  222  A    between atoms: _550  and  _551
REMARK  223  A    between atoms: _550  and  _553
REMARK  224  A    between atoms: _556  and  _558
REMARK  225  A    between atoms: _558  and  _559
REMARK  226  A    between atoms: _558  and  _561
REMARK  227  A    between atoms: _561  and  _562
REMARK  228  A    between atoms: _565  and  _567
REMARK  229  A    between atoms: _567  and  _568
REMARK  230  A    between atoms: _570  and  _572
REMARK  231  A    between atoms: _572  and  _573
REMARK  232  A    between atoms: _572  and  _575
REMARK  233  A    between atoms: _575  and  _576
REMARK  234  A    between atoms: _576  and  _577
REMARK  235  A    between atoms: _577  and  _578
REMARK  236  A    between atoms: _587  and  _589
REMARK  237  A    between atoms: _589  and  _590
REMARK  238  A    between atoms: _589  and  _592
REMARK  239  A    between atoms: _592  and  _593
REMARK                            x       y       z     vdW  Elec       q    Type
REMARK                         _______ _______ _______ _____ _____    ______ ____
ROOT
ATOM      1  C   GLY A   5      10.712  24.029  18.961  0.00  0.00    +0.243 C 
ATOM      2  N   ALA A   6      10.562  23.705  20.228  0.00  0.00    -0.297 N 
ATOM      3  H   ALA A   6      10.382  24.472  20.908  0.00  0.00    +0.150 HD
ATOM      4  O   GLY A   5      10.989  23.194  18.075  0.00  0.00    -0.273 OA
ENDROOT
BRANCH   2   5
ATOM      5  CA  ALA A   6      10.631  22.345  20.740  0.00  0.00    +0.149 C 
ATOM      6  CB  ALA A   6      11.599  22.246  21.905  0.00  0.00    +0.031 C 
BRANCH   5   7
ATOM      7  C   ALA A   6       9.239  21.882  21.187  0.00  0.00    +0.241 C 
ATOM      8  O   ALA A   6       8.597  22.549  21.990  0.00  0.00    -0.273 OA
ATOM      9  N   ASP A   7       8.788  20.757  20.648  0.00  0.00    -0.297 N 
ATOM     10  H   ASP A   7       9.327  20.290  19.891  0.00  0.00    +0.150 HD
BRANCH   9  11
ATOM     11  CA  ASP A   7       7.535  20.175  21.119  0.00  0.00    +0.160 C 
BRANCH  11  12
ATOM     12  C   ASP A   7       7.638  19.767  22.571  0.00  0.00    +0.241 C 
ATOM     13  O   ASP A   7       6.684  19.886  23.343  0.00  0.00    -0.273 OA
ATOM     14  N   ASP A   8       8.781  19.224  22.945  0.00  0.00    -0.297 N 
ATOM     15  H   ASP A   8       9.591  19.319  22.300  0.00  0.00    +0.150 HD
BRANCH  14  16
ATOM     16  CA  ASP A   8       8.996  18.503  24.191  0.00  0.00    +0.160 C 
BRANCH  16  17
ATOM     17  C   ASP A   8      10.169  19.086  24.952  0.00  0.00    +0.241 C 
ATOM     18  N   THR A   9      10.314  18.667  26.186  0.00  0.00    -0.295 N 
ATOM     19  H   THR A   9       9.612  17.990  26.548  0.00  0.00    +0.150 HD
ATOM     20  O   ASP A   8      10.959  19.862  24.439  0.00  0.00    -0.273 OA
BRANCH  18  21
ATOM     21  CA  THR A   9      11.384  19.076  27.092  0.00  0.00    +0.176 C 
BRANCH  21  22
ATOM     22  C   THR A   9      12.436  17.993  27.118  0.00  0.00    +0.243 C 
ATOM     23  O   THR A   9      12.119  16.828  27.383  0.00  0.00    -0.273 OA
ATOM     24  N   VAL A  10      13.678  18.318  26.794  0.00  0.00    -0.298 N 
ATOM     25  H   VAL A  10      13.890  19.321  26.616  0.00  0.00    +0.150 HD
BRANCH  24  26
ATOM     26  CA  VAL A  10      14.765  17.358  26.672  0.00  0.00    +0.137 C 
BRANCH  26  27
ATOM     27  CB  VAL A  10      15.241  17.202  25.205  0.00  0.00    +0.026 C 
ATOM     28  CG2 VAL A  10      16.085  15.943  25.128  0.00  0.00    +0.002 C 
ATOM     29  CG1 VAL A  10      14.044  17.225  24.303  0.00  0.00    +0.002 C 
ENDBRANCH  26  27
BRANCH  26  30
ATOM     30  C   VAL A  10      15.939  17.832  27.503  0.00  0.00    +0.227 C 
ATOM     31  O   VAL A  10      16.412  18.972  27.342  0.00  0.00    -0.286 OA
ENDBRANCH  26  30
ENDBRANCH  24  26
ENDBRANCH  21  22
BRANCH  21  32
ATOM     32  CB  THR A   9      10.783  19.336  28.472  0.00  0.00    +0.137 C 
ATOM     33  CG2 THR A   9      11.840  19.592  29.503  0.00  0.00    +0.034 C 
BRANCH  32  34
ATOM     34  OG1 THR A   9       9.937  20.507  28.343  0.00  0.00    -0.382 OA
ATOM     35  HG1 THR A   9       9.227  20.328  27.677  0.00  0.00    +0.210 HD
ENDBRANCH  32  34
ENDBRANCH  21  32
ENDBRANCH  18  21
ENDBRANCH  16  17
BRANCH  16  36
ATOM     36  CB  ASP A   8       9.319  17.032  23.852  0.00  0.00    +0.143 C 
BRANCH  36  37
ATOM     37  CG  ASP A   8       8.278  16.382  22.968  0.00  0.00    +0.367 C 
ATOM     38  OD2 ASP A   8       7.102  16.392  23.357  0.00  0.00    -0.246 OA
ATOM     39  OD1 ASP A   8       8.638  15.905  21.880  0.00  0.00    -0.246 OA
ENDBRANCH  36  37
ENDBRANCH  16  36
ENDBRANCH  14  16
ENDBRANCH  11  12
BRANCH  11  40
ATOM     40  CB  ASP A   7       7.189  18.920  20.294  0.00  0.00    +0.143 C 
BRANCH  40  41
ATOM     41  CG  ASP A   7       6.919  19.122  18.826  0.00  0.00    +0.367 C 
ATOM     42  OD2 ASP A   7       6.663  20.268  18.375  0.00  0.00    -0.246 OA
ATOM     43  OD1 ASP A   7       6.959  18.096  18.094  0.00  0.00    -0.246 OA
ENDBRANCH  40  41
ENDBRANCH  11  40
ENDBRANCH   9  11
ENDBRANCH   5   7
ENDBRANCH   2   5
BRANCH   1  44
ATOM     44  CA  GLY A   5      10.532  25.487  18.563  0.00  0.00    +0.176 C 
BRANCH  44  47
ATOM     45  C   THR A   4       9.212  26.666  20.210  0.00  0.00    +0.243 C 
ATOM     46  O   THR A   4       8.159  26.214  19.782  0.00  0.00    -0.273 OA
ATOM     47  N   GLY A   5      10.389  26.392  19.682  0.00  0.00    -0.295 N 
ATOM     48  H   GLY A   5      11.239  26.839  20.082  0.00  0.00    +0.150 HD
BRANCH  45  49
ATOM     49  CA  THR A   4       9.212  27.606  21.414  0.00  0.00    +0.176 C 
BRANCH  49  52
ATOM     50  C   ASP A   3      11.017  26.626  22.684  0.00  0.00    +0.241 C 
ATOM     51  O   ASP A   3      10.421  25.548  22.704  0.00  0.00    -0.273 OA
ATOM     52  N   THR A   4      10.487  27.691  22.073  0.00  0.00    -0.295 N 
ATOM     53  H   THR A   4      11.004  28.593  22.075  0.00  0.00    +0.150 HD
BRANCH  50  54
ATOM     54  CA  ASP A   3      12.377  26.866  23.318  0.00  0.00    +0.160 C 
BRANCH  54  56
ATOM     55  C   LEU A   2      12.933  28.199  25.257  0.00  0.00    +0.241 C 
ATOM     56  N   ASP A   3      12.316  27.159  24.756  0.00  0.00    -0.297 N 
ATOM     57  H   ASP A   3      11.775  26.532  25.385  0.00  0.00    +0.150 HD
ATOM     58  O   LEU A   2      13.420  29.099  24.559  0.00  0.00    -0.273 OA
BRANCH  55  59
ATOM     59  CA  LEU A   2      13.099  28.239  26.771  0.00  0.00    +0.149 C 
BRANCH  59  61
ATOM     60  C   LEU A   1      15.216  27.094  26.965  0.00  0.00    +0.238 C 
ATOM     61  N   LEU A   2      14.540  28.214  27.080  0.00  0.00    -0.297 N 
ATOM     62  H   LEU A   2      15.021  29.083  27.389  0.00  0.00    +0.150 HD
ATOM     63  O   LEU A   1      14.669  26.013  26.665  0.00  0.00    -0.274 OA
BRANCH  60  64
ATOM     64  CA  LEU A   1      16.733  27.100  27.144  0.00  0.00    +0.145 C 
BRANCH  64  65
ATOM     65  N   LEU A   1      17.143  26.166  28.181  0.00  0.00    -0.238 NA
ATOM     66  H   LEU A   1      17.272  25.172  27.905  0.00  0.00    +0.142 HD
ENDBRANCH  64  65
BRANCH  64  67
ATOM     67  CB  LEU A   1      17.485  26.684  25.873  0.00  0.00    +0.026 C 
BRANCH  67  68
ATOM     68  CG  LEU A   1      17.484  27.504  24.659  0.00  0.00    +0.002 C 
ATOM     69  CD2 LEU A   1      18.165  28.862  24.849  0.00  0.00    +0.000 C 
ATOM     70  CD1 LEU A   1      18.194  26.734  23.555  0.00  0.00    +0.000 C 
ENDBRANCH  67  68
ENDBRANCH  64  67
ENDBRANCH  60  64
ENDBRANCH  59  61
BRANCH  59  71
ATOM     71  CB  LEU A   2      12.470  29.465  27.364  0.00  0.00    +0.029 C 
BRANCH  71  72
ATOM     72  CG  LEU A   2      12.567  29.679  28.850  0.00  0.00    +0.002 C 
ATOM     73  CD2 LEU A   2      11.932  28.533  29.613  0.00  0.00    +0.000 C 
ATOM     74  CD1 LEU A   2      11.868  31.004  29.158  0.00  0.00    +0.000 C 
ENDBRANCH  71  72
ENDBRANCH  59  71
ENDBRANCH  55  59
ENDBRANCH  54  56
BRANCH  54  75
ATOM     75  CB  ASP A   3      13.223  25.604  23.189  0.00  0.00    +0.143 C 
BRANCH  75  76
ATOM     76  CG  ASP A   3      13.598  25.419  21.774  0.00  0.00    +0.367 C 
ATOM     77  OD2 ASP A   3      14.473  24.556  21.551  0.00  0.00    -0.246 OA
ATOM     78  OD1 ASP A   3      13.074  26.126  20.874  0.00  0.00    -0.246 OA
ENDBRANCH  75  76
ENDBRANCH  54  75
ENDBRANCH  50  54
ENDBRANCH  49  52
BRANCH  49  79
ATOM     79  CB  THR A   4       8.743  28.983  20.926  0.00  0.00    +0.137 C 
ATOM     80  CG2 THR A   4       8.590  29.951  22.106  0.00  0.00    +0.034 C 
BRANCH  79  81
ATOM     81  OG1 THR A   4       9.739  29.564  20.052  0.00  0.00    -0.382 OA
ATOM     82  HG1 THR A   4       9.878  28.971  19.271  0.00  0.00    +0.210 HD
ENDBRANCH  79  81
ENDBRANCH  49  79
ENDBRANCH  45  49
ENDBRANCH  44  47
ENDBRANCH   1  44
TORSDOF 35
REMARK  Name = ../refined-set-2016/2aoc/2aoc_pocket.pdb
REMARK  239 active torsions:
REMARK  status: ('A' for Active; 'I' for Inactive)
REMARK    1  A    between atoms: _1  and  _3
REMARK    2  A    between atoms: _3  and  _4
REMARK    3  A    between atoms: _3  and  _6
REMARK    4  A    between atoms: _6  and  _7
REMARK    5  A    between atoms: _7  and  _8
REMARK    6  A    between atoms: _8  and  _9
REMARK    7  A    between atoms: _18  and  _20
REMARK    8  A    between atoms: _20  and  _21
REMARK    9  A    between atoms: _20  and  _23
REMARK   10  A    between atoms: _23  and  _24
REMARK   11  A    between atoms: _27  and  _29
REMARK   12  A    between atoms: _29  and  _30
REMARK   13  A    between atoms: _29  and  _32
REMARK   14  A    between atoms: _33  and  _34
REMARK   15  A    between atoms: _37  and  _39
REMARK   16  A    between atoms: _39  and  _40
REMARK   17  A    between atoms: _39  and  _42
REMARK   18  A    between atoms: _42  and  _43
REMARK   19  A    between atoms: _46  and  _48
REMARK   20  A    between atoms: _48  and  _49
REMARK   21  A    between atoms: _48  and  _51
REMARK   22  A    between atoms: _51  and  _52
REMARK   23  A    between atoms: _55  and  _57
REMARK   24  A    between atoms: _57  and  _58
REMARK   25  A    between atoms: _57  and  _60
REMARK   26  A    between atoms: _60  and  _61
REMARK   27  A    between atoms: _64  and  _66
REMARK   28  A    between atoms: _66  and  _67
REMARK   29  A    between atoms: _66  and  _69
REMARK   30  A    between atoms: _69  and  _70
REMARK   31  A    between atoms: _73  and  _75
REMARK   32  A    between atoms: _75  and  _76
REMARK   33  A    between atoms: _78  and  _80
REMARK   34  A    between atoms: _80  and  _81
REMARK   35  A    between atoms: _84  and  _86
REMARK   36  A    between atoms: _86  and  _87
REMARK   37  A    between atoms: _86  and  _89
REMARK   38  A    between atoms: _89  and  _90
REMARK   39  A    between atoms: _93  and  _95
REMARK   40  A    between atoms: _95  and  _96
REMARK   41  A    between atoms: _95  and  _98
REMARK   42  A    between atoms: _98  and  _99
REMARK   43  A    between atoms: _102  and  _104
REMARK   44  A    between atoms: _104  and  _105
REMARK   45  A    between atoms: _104  and  _107
REMARK   46  A    between atoms: _107  and  _108
REMARK   47  A    between atoms: _111  and  _113
REMARK   48  A    between atoms: _113  and  _114
REMARK   49  A    between atoms: _113  and  _116
REMARK   50  A    between atoms: _119  and  _121
REMARK   51  A    between atoms: _121  and  _122
REMARK   52  A    between atoms: _121  and  _124
REMARK   53  A    between atoms: _124  and  _125
REMARK   54  A    between atoms: _125  and  _126
REMARK   55  A    between atoms: _126  and  _127
REMARK   56  A    between atoms: _127  and  _128
REMARK   57  A    between atoms: _132  and  _134
REMARK   58  A    between atoms: _134  and  _135
REMARK   59  A    between atoms: _134  and  _137
REMARK   60  A    between atoms: _137  and  _138
REMARK   61  A    between atoms: _138  and  _139
REMARK   62  A    between atoms: _141  and  _143
REMARK   63  A    between atoms: _143  and  _144
REMARK   64  A    between atoms: _143  and  _146
REMARK   65  A    between atoms: _146  and  _147
REMARK   66  A    between atoms: _150  and  _152
REMARK   67  A    between atoms: _152  and  _153
REMARK   68  A    between atoms: _155  and  _157
REMARK   69  A    between atoms: _157  and  _158
REMARK   70  A    between atoms: _160  and  _162
REMARK   71  A    between atoms: _162  and  _163
REMARK   72  A    between atoms: _162  and  _165
REMARK   73  A    between atoms: _165  and  _166
REMARK   74  A    between atoms: _169  and  _171
REMARK   75  A    between atoms: _171  and  _172
REMARK   76  A    between atoms: _174  and  _176
REMARK   77  A    between atoms: _176  and  _177
REMARK   78  A    between atoms: _179  and  _181
REMARK   79  A    between atoms: _181  and  _182
REMARK   80  A    between atoms: _181  and  _184
REMARK   81  A    between atoms: _184  and  _185
REMARK   82  A    between atoms: _191  and  _193
REMARK   83  A    between atoms: _193  and  _194
REMARK   84  A    between atoms: _193  and  _196
REMARK   85  A    between atoms: _196  and  _197
REMARK   86  A    between atoms: _200  and  _202
REMARK   87  A    between atoms: _202  and  _203
REMARK   88  A    between atoms: _202  and  _205
REMARK   89  A    between atoms: _208  and  _210
REMARK   90  A    between atoms: _210  and  _211
REMARK   91  A    between atoms: _210  and  _213
REMARK   92  A    between atoms: _213  and  _214
REMARK   93  A    between atoms: _218  and  _219
REMARK   94  A    between atoms: _224  and  _226
REMARK   95  A    between atoms: _226  and  _227
REMARK   96  A    between atoms: _226  and  _229
REMARK   97  A    between atoms: _229  and  _230
REMARK   98  A    between atoms: _234  and  _235
REMARK   99  A    between atoms: _240  and  _242
REMARK  100  A    between atoms: _242  and  _243
REMARK  101  A    between atoms: _242  and  _245
REMARK  102  A    between atoms: _248  and  _250
REMARK  103  A    between atoms: _250  and  _251
REMARK  104  A    between atoms: _250  and  _253
REMARK  105  A    between atoms: _253  and  _254
REMARK  106  A    between atoms: _259  and  _261
REMARK  107  A    between atoms: _261  and  _262
REMARK  108  A    between atoms: _261  and  _264
REMARK  109  A    between atoms: _267  and  _269
REMARK  110  A    between atoms: _269  and  _270
REMARK  111  A    between atoms: _269  and  _272
REMARK  112  A    between atoms: _272  and  _273
REMARK  113  A    between atoms: _276  and  _278
REMARK  114  A    between atoms: _278  and  _279
REMARK  115  A    between atoms: _281  and  _283
REMARK  116  A    between atoms: _283  and  _284
REMARK  117  A    between atoms: _283  and  _286
REMARK  118  A    between atoms: _287  and  _288
REMARK  119  A    between atoms: _288  and  _289
REMARK  120  A    between atoms: _298  and  _300
REMARK  121  A    between atoms: _300  and  _301
REMARK  122  A    between atoms: _300  and  _303
REMARK  123  A    between atoms: _303  and  _304
REMARK  124  A    between atoms: _309  and  _311
REMARK  125  A    between atoms: _311  and  _312
REMARK  126  A    between atoms: _311  and  _314
REMARK  127  A    between atoms: _314  and  _315
REMARK  128  A    between atoms: _315  and  _316
REMARK  129  A    between atoms: _316  and  _317
REMARK  130  A    between atoms: _326  and  _328
REMARK  131  A    between atoms: _328  and  _329
REMARK  132  A    between atoms: _328  and  _331
REMARK  133  A    between atoms: _331  and  _332
REMARK  134  A    between atoms: _335  and  _337
REMARK  135  A    between atoms: _337  and  _338
REMARK  136  A    between atoms: _337  and  _340
REMARK  137  A    between atoms: _340  and  _341
REMARK  138  A    between atoms: _344  and  _346
REMARK  139  A    between atoms: _346  and  _347
REMARK  140  A    between atoms: _346  and  _349
REMARK  141  A    between atoms: _349  and  _350
REMARK  142  A    between atoms: _353  and  _355
REMARK  143  A    between atoms: _355  and  _356
REMARK  144  A    between atoms: _355  and  _358
REMARK  145  A    between atoms: _358  and  _359
REMARK  146  A    between atoms: _362  and  _364
REMARK  147  A    between atoms: _364  and  _365
REMARK  148  A    between atoms: _367  and  _369
REMARK  149  A    between atoms: _369  and  _370
REMARK  150  A    between atoms: _373  and  _375
REMARK  151  A    between atoms: _375  and  _376
REMARK  152  A    between atoms: _375  and  _378
REMARK  153  A    between atoms: _378  and  _379
REMARK  154  A    between atoms: _382  and  _384
REMARK  155  A    between atoms: _384  and  _385
REMARK  156  A    between atoms: _384  and  _387
REMARK  157  A    between atoms: _387  and  _388
REMARK  158  A    between atoms: _391  and  _393
REMARK  159  A    between atoms: _393  and  _394
REMARK  160  A    between atoms: _393  and  _396
REMARK  161  A    between atoms: _396  and  _397
REMARK  162  A    between atoms: _400  and  _402
REMARK  163  A    between atoms: _402  and  _403
REMARK  164  A    between atoms: _402  and  _405
REMARK  165  A    between atoms: _408  and  _410
REMARK  166  A    between atoms: _410  and  _411
REMARK  167  A    between atoms: _410  and  _413
REMARK  168  A    between atoms: _413  and  _414
REMARK  169  A    between atoms: _414  and  _415
REMARK  170  A    between atoms: _415  and  _416
REMARK  171  A    between atoms: _416  and  _417
REMARK  172  A    between atoms: _421  and  _423
REMARK  173  A    between atoms: _423  and  _424
REMARK  174  A    between atoms: _423  and  _426
REMARK  175  A    between atoms: _426  and  _427
REMARK  176  A    between atoms: _427  and  _428
REMARK  177  A    between atoms: _430  and  _432
REMARK  178  A    between atoms: _432  and  _433
REMARK  179  A    between atoms: _432  and  _435
REMARK  180  A    between atoms: _435  and  _436
REMARK  181  A    between atoms: _439  and  _441
REMARK  182  A    between atoms: _441  and  _442
REMARK  183  A    between atoms: _444  and  _446
REMARK  184  A    between atoms: _446  and  _447
REMARK  185  A    between atoms: _449  and  _451
REMARK  186  A    between atoms: _451  and  _452
REMARK  187  A    between atoms: _451  and  _454
REMARK  188  A    between atoms: _454  and  _455
REMARK  189  A    between atoms: _458  and  _460
REMARK  190  A    between atoms: _460  and  _461
REMARK  191  A    between atoms: _463  and  _465
REMARK  192  A    between atoms: _465  and  _466
REMARK  193  A    between atoms: _468  and  _470
REMARK  194  A    between atoms: _470  and  _471
REMARK  195  A    between atoms: _470  and  _473
REMARK  196  A    between atoms: _473  and  _474
REMARK  197  A    between atoms: _480  and  _482
REMARK  198  A    between atoms: _482  and  _483
REMARK  199  A    between atoms: _482  and  _485
REMARK  200  A    between atoms: _485  and  _486
REMARK  201  A    between atoms: _489  and  _491
REMARK  202  A    between atoms: _491  and  _492
REMARK  203  A    between atoms: _491  and  _494
REMARK  204  A    between atoms: _497  and  _499
REMARK  205  A    between atoms: _499  and  _500
REMARK  206  A    between atoms: _499  and  _502
REMARK  207  A    between atoms: _502  and  _503
REMARK  208  A    between atoms: _507  and  _508
REMARK  209  A    between atoms: _513  and  _515
REMARK  210  A    between atoms: _515  and  _516
REMARK  211  A    between atoms: _515  and  _518
REMARK  212  A    between atoms: _518  and  _519
REMARK  213  A    between atoms: _523  and  _524
REMARK  214  A    between atoms: _529  and  _531
REMARK  215  A    between atoms: _531  and  _532
REMARK  216  A    between atoms: _531  and  _534
REMARK  217  A    between atoms: _537  and  _539
REMARK  218  A    between atoms: _539  and  _540
REMARK  219  A    between atoms: _539  and  _542
REMARK  220  A    between atoms: _542  and  _543
REMARK  221  A    between atoms: _548  and  _550
REMARK  222  A    between atoms: _550  and  _551
REMARK  223  A    between atoms: _550  and  _553
REMARK  224  A    between atoms: _556  and  _558
REMARK  225  A    between atoms: _558  and  _559
REMARK  226  A    between atoms: _558  and  _561
REMARK  227  A    between atoms: _561  and  _562
REMARK  228  A    between atoms: _565  and  _567
REMARK  229  A    between atoms: _567  and  _568
REMARK  230  A    between atoms: _570  and  _572
REMARK  231  A    between atoms: _572  and  _573
REMARK  232  A    between atoms: _572  and  _575
REMARK  233  A    between atoms: _575  and  _576
REMARK  234  A    between atoms: _576  and  _577
REMARK  235  A    between atoms: _577  and  _578
REMARK  236  A    between atoms: _587  and  _589
REMARK  237  A    between atoms: _589  and  _590
REMARK  238  A    between atoms: _589  and  _592
REMARK  239  A    between atoms: _592  and  _593
REMARK                            x       y       z     vdW  Elec       q    Type
REMARK                         _______ _______ _______ _____ _____    ______ ____
ROOT
ATOM      1  C   GLY A   5      16.877  18.407  14.009  0.00  0.00    +0.243 C 
ATOM      2  N   ILE A   6      17.607  19.489  14.037  0.00  0.00    -0.297 N 
ATOM      3  H   ILE A   6      17.741  19.997  14.935  0.00  0.00    +0.150 HD
ATOM      4  O   GLY A   5      16.742  17.717  12.993  0.00  0.00    -0.273 OA
ENDROOT
BRANCH   2   5
ATOM      5  CA  ILE A   6      18.232  19.989  12.829  0.00  0.00    +0.149 C 
BRANCH   5   6
ATOM      6  C   ILE A   6      19.153  18.970  12.203  0.00  0.00    +0.241 C 
ATOM      7  N   GLY A   7      19.830  18.120  12.948  0.00  0.00    -0.295 N 
ATOM      8  H   GLY A   7      19.664  18.120  13.975  0.00  0.00    +0.150 HD
ATOM      9  O   ILE A   6      19.271  18.938  10.976  0.00  0.00    -0.273 OA
BRANCH   7  10
ATOM     10  CA  GLY A   7      20.785  17.195  12.409  0.00  0.00    +0.176 C 
BRANCH  10  11
ATOM     11  C   GLY A   7      20.306  15.800  12.158  0.00  0.00    +0.243 C 
ATOM     12  N   GLY A   8      19.120  15.450  12.602  0.00  0.00    -0.295 N 
ATOM     13  H   GLY A   8      18.537  16.179  13.060  0.00  0.00    +0.150 HD
ATOM     14  O   GLY A   7      21.063  15.002  11.594  0.00  0.00    -0.273 OA
BRANCH  12  15
ATOM     15  CA  GLY A   8      18.568  14.098  12.492  0.00  0.00    +0.176 C 
BRANCH  15  16
ATOM     16  C   GLY A   8      17.911  13.681  13.795  0.00  0.00    +0.243 C 
ATOM     17  O   GLY A   8      17.403  14.517  14.532  0.00  0.00    -0.273 OA
ATOM     18  N   PHE A   9      17.886  12.414  14.076  0.00  0.00    -0.297 N 
ATOM     19  H   PHE A   9      18.459  11.786  13.477  0.00  0.00    +0.150 HD
BRANCH  18  20
ATOM     20  CA  PHE A   9      17.139  11.799  15.139  0.00  0.00    +0.153 C 
BRANCH  20  21
ATOM     21  C   PHE A   9      18.030  11.204  16.199  0.00  0.00    +0.241 C 
ATOM     22  N   ILE A  10      17.496  11.244  17.419  0.00  0.00    -0.298 N 
ATOM     23  H   ILE A  10      16.612  11.770  17.572  0.00  0.00    +0.150 HD
ATOM     24  O   PHE A   9      19.097  10.721  15.918  0.00  0.00    -0.273 OA
BRANCH  22  25
ATOM     25  CA  ILE A  10      18.123  10.569  18.537  0.00  0.00    +0.137 C 
BRANCH  25  26
ATOM     26  C   ILE A  10      17.072   9.828  19.367  0.00  0.00    +0.227 C 
ATOM     27  O   ILE A  10      15.898  10.217  19.389  0.00  0.00    -0.286 OA
ENDBRANCH  25  26
BRANCH  25  28
ATOM     28  CB  ILE A  10      18.912  11.516  19.464  0.00  0.00    +0.026 C 
ATOM     29  CG2 ILE A  10      20.028  12.160  18.659  0.00  0.00    +0.002 C 
BRANCH  28  30
ATOM     30  CG1 ILE A  10      18.032  12.549  20.159  0.00  0.00    +0.002 C 
ATOM     31  CD1 ILE A  10      18.718  13.389  21.225  0.00  0.00    +0.000 C 
ENDBRANCH  28  30
ENDBRANCH  25  28
ENDBRANCH  22  25
ENDBRANCH  20  21
BRANCH  20  32
ATOM     32  CB  PHE A   9      16.238  10.658  14.580  0.00  0.00    +0.055 C 
BRANCH  32  33
ATOM     33  CG  PHE A   9      15.316  11.259  13.555  0.00  0.00    -0.020 A 
ATOM     34  CD2 PHE A   9      14.096  11.741  13.963  0.00  0.00    -0.004 A 
ATOM     35  CE2 PHE A   9      13.241  12.323  13.016  0.00  0.00    -0.000 A 
ATOM     36  CZ  PHE A   9      13.669  12.455  11.716  0.00  0.00    -0.000 A 
ATOM     37  CE1 PHE A   9      14.920  11.972  11.318  0.00  0.00    -0.000 A 
ATOM     38  CD1 PHE A   9      15.753  11.362  12.243  0.00  0.00    -0.004 A 
ENDBRANCH  32  33
ENDBRANCH  20  32
ENDBRANCH  18  20
ENDBRANCH  15  16
ENDBRANCH  12  15
ENDBRANCH  10  11
ENDBRANCH   7  10
ENDBRANCH   5   6
BRANCH   5  39
ATOM     39  CB  ILE A   6      19.066  21.237  13.237  0.00  0.00    +0.027 C 
ATOM     40  CG2 ILE A   6      20.195  20.824  14.193  0.00  0.00    +0.002 C 
BRANCH  39  41
ATOM     41  CG1 ILE A   6      19.649  22.091  12.117  0.00  0.00    +0.002 C 
ATOM     42  CD1 ILE A   6      18.625  23.018  11.494  0.00  0.00    +0.000 C 
ENDBRANCH  39  41
ENDBRANCH   5  39
ENDBRANCH   2   5
BRANCH   1  43
ATOM     43  CA  GLY A   5      16.223  18.109  15.343  0.00  0.00    +0.176 C 
BRANCH  43  46
ATOM     44  C   GLY A   4      14.663  16.341  15.942  0.00  0.00    +0.243 C 
ATOM     45  O   GLY A   4      13.950  17.106  16.591  0.00  0.00    -0.273 OA
ATOM     46  N   GLY A   5      15.782  16.735  15.362  0.00  0.00    -0.295 N 
ATOM     47  H   GLY A   5      16.375  16.019  14.896  0.00  0.00    +0.150 HD
BRANCH  44  48
ATOM     48  CA  GLY A   4      14.302  14.898  15.695  0.00  0.00    +0.176 C 
BRANCH  48  51
ATOM     49  C   ILE A   3      13.983  13.304  17.479  0.00  0.00    +0.241 C 
ATOM     50  O   ILE A   3      15.029  12.690  17.253  0.00  0.00    -0.273 OA
ATOM     51  N   GLY A   4      13.557  14.372  16.789  0.00  0.00    -0.295 N 
ATOM     52  H   GLY A   4      12.662  14.827  17.059  0.00  0.00    +0.150 HD
BRANCH  49  53
ATOM     53  CA  ILE A   3      13.012  12.838  18.566  0.00  0.00    +0.149 C 
BRANCH  53  55
ATOM     54  C   MET A   2      12.247  10.549  18.846  0.00  0.00    +0.241 C 
ATOM     55  N   ILE A   3      13.232  11.428  18.859  0.00  0.00    -0.297 N 
ATOM     56  H   ILE A   3      14.194  11.104  19.085  0.00  0.00    +0.150 HD
ATOM     57  O   MET A   2      11.059  10.798  18.647  0.00  0.00    -0.273 OA
BRANCH  54  58
ATOM     58  CA  MET A   2      12.623   9.077  19.097  0.00  0.00    +0.149 C 
BRANCH  58  61
ATOM     59  C   LYS A   1      12.058   8.264  21.300  0.00  0.00    +0.238 C 
ATOM     60  O   LYS A   1      13.204   8.330  21.715  0.00  0.00    -0.274 OA
ATOM     61  N   MET A   2      11.735   8.547  20.064  0.00  0.00    -0.297 N 
ATOM     62  H   MET A   2      10.753   8.369  19.770  0.00  0.00    +0.150 HD
BRANCH  59  63
ATOM     63  CA  LYS A   1      10.920   7.908  22.228  0.00  0.00    +0.145 C 
BRANCH  63  64
ATOM     64  N   LYS A   1      11.371   6.867  23.112  0.00  0.00    -0.238 NA
ATOM     65  H   LYS A   1      12.386   6.803  23.329  0.00  0.00    +0.142 HD
ENDBRANCH  63  64
BRANCH  63  66
ATOM     66  CB  LYS A   1      10.455   9.143  23.017  0.00  0.00    +0.026 C 
BRANCH  66  67
ATOM     67  CG  LYS A   1       9.650  10.128  22.134  0.00  0.00    -0.000 C 
BRANCH  67  68
ATOM     68  CD  LYS A   1       8.921  11.181  22.862  0.00  0.00    -0.024 C 
BRANCH  68  69
ATOM     69  CE  LYS A   1       8.423  12.211  21.882  0.00  0.00    -0.086 C 
BRANCH  69  70
ATOM     70  NZ  LYS A   1       7.062  11.950  21.403  0.00  0.00    +0.380 N 
ATOM     71  HZ1 LYS A   1       6.407  11.944  22.211  0.00  0.00    -0.089 HD
ATOM     72  HZ2 LYS A   1       7.035  11.026  20.926  0.00  0.00    -0.089 HD
ATOM     73  HZ3 LYS A   1       6.783  12.695  20.734  0.00  0.00    -0.089 HD
ENDBRANCH  69  70
ENDBRANCH  68  69
ENDBRANCH  67  68
ENDBRANCH  66  67
ENDBRANCH  63  66
ENDBRANCH  59  63
ENDBRANCH  58  61
BRANCH  58  74
ATOM     74  CB  MET A   2      12.378   8.311  17.775  0.00  0.00    +0.041 C 
BRANCH  74  75
ATOM     75  CG  MET A   2      13.407   8.751  16.779  0.00  0.00    +0.060 C 
BRANCH  75  76
ATOM     76  SD  MET A   2      14.950   7.867  16.716  0.00  0.00    -0.139 S 
ATOM     77  CE  MET A   2      14.604   6.367  17.557  0.00  0.00    +0.069 C 
ENDBRANCH  75  76
ENDBRANCH  74  75
ENDBRANCH  58  74
ENDBRANCH  54  58
ENDBRANCH  53  55
BRANCH  53  78
ATOM     78  CB  ILE A   3      13.151  13.713  19.819  0.00  0.00    +0.027 C 
ATOM     79  CG2 ILE A   3      12.070  13.369  20.831  0.00  0.00    +0.002 C 
BRANCH  78  80
ATOM     80  CG1 ILE A   3      14.528  13.649  20.452  0.00  0.00    +0.002 C 
ATOM     81  CD1 ILE A   3      14.770  14.643  21.566  0.00  0.00    +0.000 C 
ENDBRANCH  78  80
ENDBRANCH  53  78
ENDBRANCH  49  53
ENDBRANCH  48  51
ENDBRANCH  44  48
ENDBRANCH  43  46
ENDBRANCH   1  43
TORSDOF 36
REMARK  Name = ../refined-set-2016/2aoc/2aoc_pocket.pdb
REMARK  239 active torsions:
REMARK  status: ('A' for Active; 'I' for Inactive)
REMARK    1  A    between atoms: _1  and  _3
REMARK    2  A    between atoms: _3  and  _4
REMARK    3  A    between atoms: _3  and  _6
REMARK    4  A    between atoms: _6  and  _7
REMARK    5  A    between atoms: _7  and  _8
REMARK    6  A    between atoms: _8  and  _9
REMARK    7  A    between atoms: _18  and  _20
REMARK    8  A    between atoms: _20  and  _21
REMARK    9  A    between atoms: _20  and  _23
REMARK   10  A    between atoms: _23  and  _24
REMARK   11  A    between atoms: _27  and  _29
REMARK   12  A    between atoms: _29  and  _30
REMARK   13  A    between atoms: _29  and  _32
REMARK   14  A    between atoms: _33  and  _34
REMARK   15  A    between atoms: _37  and  _39
REMARK   16  A    between atoms: _39  and  _40
REMARK   17  A    between atoms: _39  and  _42
REMARK   18  A    between atoms: _42  and  _43
REMARK   19  A    between atoms: _46  and  _48
REMARK   20  A    between atoms: _48  and  _49
REMARK   21  A    between atoms: _48  and  _51
REMARK   22  A    between atoms: _51  and  _52
REMARK   23  A    between atoms: _55  and  _57
REMARK   24  A    between atoms: _57  and  _58
REMARK   25  A    between atoms: _57  and  _60
REMARK   26  A    between atoms: _60  and  _61
REMARK   27  A    between atoms: _64  and  _66
REMARK   28  A    between atoms: _66  and  _67
REMARK   29  A    between atoms: _66  and  _69
REMARK   30  A    between atoms: _69  and  _70
REMARK   31  A    between atoms: _73  and  _75
REMARK   32  A    between atoms: _75  and  _76
REMARK   33  A    between atoms: _78  and  _80
REMARK   34  A    between atoms: _80  and  _81
REMARK   35  A    between atoms: _84  and  _86
REMARK   36  A    between atoms: _86  and  _87
REMARK   37  A    between atoms: _86  and  _89
REMARK   38  A    between atoms: _89  and  _90
REMARK   39  A    between atoms: _93  and  _95
REMARK   40  A    between atoms: _95  and  _96
REMARK   41  A    between atoms: _95  and  _98
REMARK   42  A    between atoms: _98  and  _99
REMARK   43  A    between atoms: _102  and  _104
REMARK   44  A    between atoms: _104  and  _105
REMARK   45  A    between atoms: _104  and  _107
REMARK   46  A    between atoms: _107  and  _108
REMARK   47  A    between atoms: _111  and  _113
REMARK   48  A    between atoms: _113  and  _114
REMARK   49  A    between atoms: _113  and  _116
REMARK   50  A    between atoms: _119  and  _121
REMARK   51  A    between atoms: _121  and  _122
REMARK   52  A    between atoms: _121  and  _124
REMARK   53  A    between atoms: _124  and  _125
REMARK   54  A    between atoms: _125  and  _126
REMARK   55  A    between atoms: _126  and  _127
REMARK   56  A    between atoms: _127  and  _128
REMARK   57  A    between atoms: _132  and  _134
REMARK   58  A    between atoms: _134  and  _135
REMARK   59  A    between atoms: _134  and  _137
REMARK   60  A    between atoms: _137  and  _138
REMARK   61  A    between atoms: _138  and  _139
REMARK   62  A    between atoms: _141  and  _143
REMARK   63  A    between atoms: _143  and  _144
REMARK   64  A    between atoms: _143  and  _146
REMARK   65  A    between atoms: _146  and  _147
REMARK   66  A    between atoms: _150  and  _152
REMARK   67  A    between atoms: _152  and  _153
REMARK   68  A    between atoms: _155  and  _157
REMARK   69  A    between atoms: _157  and  _158
REMARK   70  A    between atoms: _160  and  _162
REMARK   71  A    between atoms: _162  and  _163
REMARK   72  A    between atoms: _162  and  _165
REMARK   73  A    between atoms: _165  and  _166
REMARK   74  A    between atoms: _169  and  _171
REMARK   75  A    between atoms: _171  and  _172
REMARK   76  A    between atoms: _174  and  _176
REMARK   77  A    between atoms: _176  and  _177
REMARK   78  A    between atoms: _179  and  _181
REMARK   79  A    between atoms: _181  and  _182
REMARK   80  A    between atoms: _181  and  _184
REMARK   81  A    between atoms: _184  and  _185
REMARK   82  A    between atoms: _191  and  _193
REMARK   83  A    between atoms: _193  and  _194
REMARK   84  A    between atoms: _193  and  _196
REMARK   85  A    between atoms: _196  and  _197
REMARK   86  A    between atoms: _200  and  _202
REMARK   87  A    between atoms: _202  and  _203
REMARK   88  A    between atoms: _202  and  _205
REMARK   89  A    between atoms: _208  and  _210
REMARK   90  A    between atoms: _210  and  _211
REMARK   91  A    between atoms: _210  and  _213
REMARK   92  A    between atoms: _213  and  _214
REMARK   93  A    between atoms: _218  and  _219
REMARK   94  A    between atoms: _224  and  _226
REMARK   95  A    between atoms: _226  and  _227
REMARK   96  A    between atoms: _226  and  _229
REMARK   97  A    between atoms: _229  and  _230
REMARK   98  A    between atoms: _234  and  _235
REMARK   99  A    between atoms: _240  and  _242
REMARK  100  A    between atoms: _242  and  _243
REMARK  101  A    between atoms: _242  and  _245
REMARK  102  A    between atoms: _248  and  _250
REMARK  103  A    between atoms: _250  and  _251
REMARK  104  A    between atoms: _250  and  _253
REMARK  105  A    between atoms: _253  and  _254
REMARK  106  A    between atoms: _259  and  _261
REMARK  107  A    between atoms: _261  and  _262
REMARK  108  A    between atoms: _261  and  _264
REMARK  109  A    between atoms: _267  and  _269
REMARK  110  A    between atoms: _269  and  _270
REMARK  111  A    between atoms: _269  and  _272
REMARK  112  A    between atoms: _272  and  _273
REMARK  113  A    between atoms: _276  and  _278
REMARK  114  A    between atoms: _278  and  _279
REMARK  115  A    between atoms: _281  and  _283
REMARK  116  A    between atoms: _283  and  _284
REMARK  117  A    between atoms: _283  and  _286
REMARK  118  A    between atoms: _287  and  _288
REMARK  119  A    between atoms: _288  and  _289
REMARK  120  A    between atoms: _298  and  _300
REMARK  121  A    between atoms: _300  and  _301
REMARK  122  A    between atoms: _300  and  _303
REMARK  123  A    between atoms: _303  and  _304
REMARK  124  A    between atoms: _309  and  _311
REMARK  125  A    between atoms: _311  and  _312
REMARK  126  A    between atoms: _311  and  _314
REMARK  127  A    between atoms: _314  and  _315
REMARK  128  A    between atoms: _315  and  _316
REMARK  129  A    between atoms: _316  and  _317
REMARK  130  A    between atoms: _326  and  _328
REMARK  131  A    between atoms: _328  and  _329
REMARK  132  A    between atoms: _328  and  _331
REMARK  133  A    between atoms: _331  and  _332
REMARK  134  A    between atoms: _335  and  _337
REMARK  135  A    between atoms: _337  and  _338
REMARK  136  A    between atoms: _337  and  _340
REMARK  137  A    between atoms: _340  and  _341
REMARK  138  A    between atoms: _344  and  _346
REMARK  139  A    between atoms: _346  and  _347
REMARK  140  A    between atoms: _346  and  _349
REMARK  141  A    between atoms: _349  and  _350
REMARK  142  A    between atoms: _353  and  _355
REMARK  143  A    between atoms: _355  and  _356
REMARK  144  A    between atoms: _355  and  _358
REMARK  145  A    between atoms: _358  and  _359
REMARK  146  A    between atoms: _362  and  _364
REMARK  147  A    between atoms: _364  and  _365
REMARK  148  A    between atoms: _367  and  _369
REMARK  149  A    between atoms: _369  and  _370
REMARK  150  A    between atoms: _373  and  _375
REMARK  151  A    between atoms: _375  and  _376
REMARK  152  A    between atoms: _375  and  _378
REMARK  153  A    between atoms: _378  and  _379
REMARK  154  A    between atoms: _382  and  _384
REMARK  155  A    between atoms: _384  and  _385
REMARK  156  A    between atoms: _384  and  _387
REMARK  157  A    between atoms: _387  and  _388
REMARK  158  A    between atoms: _391  and  _393
REMARK  159  A    between atoms: _393  and  _394
REMARK  160  A    between atoms: _393  and  _396
REMARK  161  A    between atoms: _396  and  _397
REMARK  162  A    between atoms: _400  and  _402
REMARK  163  A    between atoms: _402  and  _403
REMARK  164  A    between atoms: _402  and  _405
REMARK  165  A    between atoms: _408  and  _410
REMARK  166  A    between atoms: _410  and  _411
REMARK  167  A    between atoms: _410  and  _413
REMARK  168  A    between atoms: _413  and  _414
REMARK  169  A    between atoms: _414  and  _415
REMARK  170  A    between atoms: _415  and  _416
REMARK  171  A    between atoms: _416  and  _417
REMARK  172  A    between atoms: _421  and  _423
REMARK  173  A    between atoms: _423  and  _424
REMARK  174  A    between atoms: _423  and  _426
REMARK  175  A    between atoms: _426  and  _427
REMARK  176  A    between atoms: _427  and  _428
REMARK  177  A    between atoms: _430  and  _432
REMARK  178  A    between atoms: _432  and  _433
REMARK  179  A    between atoms: _432  and  _435
REMARK  180  A    between atoms: _435  and  _436
REMARK  181  A    between atoms: _439  and  _441
REMARK  182  A    between atoms: _441  and  _442
REMARK  183  A    between atoms: _444  and  _446
REMARK  184  A    between atoms: _446  and  _447
REMARK  185  A    between atoms: _449  and  _451
REMARK  186  A    between atoms: _451  and  _452
REMARK  187  A    between atoms: _451  and  _454
REMARK  188  A    between atoms: _454  and  _455
REMARK  189  A    between atoms: _458  and  _460
REMARK  190  A    between atoms: _460  and  _461
REMARK  191  A    between atoms: _463  and  _465
REMARK  192  A    between atoms: _465  and  _466
REMARK  193  A    between atoms: _468  and  _470
REMARK  194  A    between atoms: _470  and  _471
REMARK  195  A    between atoms: _470  and  _473
REMARK  196  A    between atoms: _473  and  _474
REMARK  197  A    between atoms: _480  and  _482
REMARK  198  A    between atoms: _482  and  _483
REMARK  199  A    between atoms: _482  and  _485
REMARK  200  A    between atoms: _485  and  _486
REMARK  201  A    between atoms: _489  and  _491
REMARK  202  A    between atoms: _491  and  _492
REMARK  203  A    between atoms: _491  and  _494
REMARK  204  A    between atoms: _497  and  _499
REMARK  205  A    between atoms: _499  and  _500
REMARK  206  A    between atoms: _499  and  _502
REMARK  207  A    between atoms: _502  and  _503
REMARK  208  A    between atoms: _507  and  _508
REMARK  209  A    between atoms: _513  and  _515
REMARK  210  A    between atoms: _515  and  _516
REMARK  211  A    between atoms: _515  and  _518
REMARK  212  A    between atoms: _518  and  _519
REMARK  213  A    between atoms: _523  and  _524
REMARK  214  A    between atoms: _529  and  _531
REMARK  215  A    between atoms: _531  and  _532
REMARK  216  A    between atoms: _531  and  _534
REMARK  217  A    between atoms: _537  and  _539
REMARK  218  A    between atoms: _539  and  _540
REMARK  219  A    between atoms: _539  and  _542
REMARK  220  A    between atoms: _542  and  _543
REMARK  221  A    between atoms: _548  and  _550
REMARK  222  A    between atoms: _550  and  _551
REMARK  223  A    between atoms: _550  and  _553
REMARK  224  A    between atoms: _556  and  _558
REMARK  225  A    between atoms: _558  and  _559
REMARK  226  A    between atoms: _558  and  _561
REMARK  227  A    between atoms: _561  and  _562
REMARK  228  A    between atoms: _565  and  _567
REMARK  229  A    between atoms: _567  and  _568
REMARK  230  A    between atoms: _570  and  _572
REMARK  231  A    between atoms: _572  and  _573
REMARK  232  A    between atoms: _572  and  _575
REMARK  233  A    between atoms: _575  and  _576
REMARK  234  A    between atoms: _576  and  _577
REMARK  235  A    between atoms: _577  and  _578
REMARK  236  A    between atoms: _587  and  _589
REMARK  237  A    between atoms: _589  and  _590
REMARK  238  A    between atoms: _589  and  _592
REMARK  239  A    between atoms: _592  and  _593
REMARK                            x       y       z     vdW  Elec       q    Type
REMARK                         _______ _______ _______ _____ _____    ______ ____
ROOT
ATOM      1  CA  VAL A   1      15.708   9.391  24.432  0.00  0.00    +0.133 C 
ENDROOT
BRANCH   1   2
ATOM      2  CB  VAL A   1      15.190  10.827  24.458  0.00  0.00    +0.023 C 
ATOM      3  CG2 VAL A   1      13.777  10.934  23.935  0.00  0.00    +0.002 C 
ATOM      4  CG1 VAL A   1      16.146  11.717  23.687  0.00  0.00    +0.002 C 
ENDBRANCH   1   2
BRANCH   1   5
ATOM      5  N   VAL A   1      15.715   8.846  23.089  0.00  0.00    -0.239 NA
ATOM      6  H   VAL A   1      14.821   8.532  22.660  0.00  0.00    +0.142 HD
ENDBRANCH   1   5
BRANCH   1   7
ATOM      7  C   VAL A   1      14.855   8.492  25.342  0.00  0.00    +0.224 C 
ATOM      8  O   VAL A   1      14.120   7.626  24.880  0.00  0.00    -0.287 OA
ENDBRANCH   1   7
TORSDOF 3
REMARK  Name = ../refined-set-2016/2aoc/2aoc_pocket.pdb
REMARK  239 active torsions:
REMARK  status: ('A' for Active; 'I' for Inactive)
REMARK    1  A    between atoms: _1  and  _3
REMARK    2  A    between atoms: _3  and  _4
REMARK    3  A    between atoms: _3  and  _6
REMARK    4  A    between atoms: _6  and  _7
REMARK    5  A    between atoms: _7  and  _8
REMARK    6  A    between atoms: _8  and  _9
REMARK    7  A    between atoms: _18  and  _20
REMARK    8  A    between atoms: _20  and  _21
REMARK    9  A    between atoms: _20  and  _23
REMARK   10  A    between atoms: _23  and  _24
REMARK   11  A    between atoms: _27  and  _29
REMARK   12  A    between atoms: _29  and  _30
REMARK   13  A    between atoms: _29  and  _32
REMARK   14  A    between atoms: _33  and  _34
REMARK   15  A    between atoms: _37  and  _39
REMARK   16  A    between atoms: _39  and  _40
REMARK   17  A    between atoms: _39  and  _42
REMARK   18  A    between atoms: _42  and  _43
REMARK   19  A    between atoms: _46  and  _48
REMARK   20  A    between atoms: _48  and  _49
REMARK   21  A    between atoms: _48  and  _51
REMARK   22  A    between atoms: _51  and  _52
REMARK   23  A    between atoms: _55  and  _57
REMARK   24  A    between atoms: _57  and  _58
REMARK   25  A    between atoms: _57  and  _60
REMARK   26  A    between atoms: _60  and  _61
REMARK   27  A    between atoms: _64  and  _66
REMARK   28  A    between atoms: _66  and  _67
REMARK   29  A    between atoms: _66  and  _69
REMARK   30  A    between atoms: _69  and  _70
REMARK   31  A    between atoms: _73  and  _75
REMARK   32  A    between atoms: _75  and  _76
REMARK   33  A    between atoms: _78  and  _80
REMARK   34  A    between atoms: _80  and  _81
REMARK   35  A    between atoms: _84  and  _86
REMARK   36  A    between atoms: _86  and  _87
REMARK   37  A    between atoms: _86  and  _89
REMARK   38  A    between atoms: _89  and  _90
REMARK   39  A    between atoms: _93  and  _95
REMARK   40  A    between atoms: _95  and  _96
REMARK   41  A    between atoms: _95  and  _98
REMARK   42  A    between atoms: _98  and  _99
REMARK   43  A    between atoms: _102  and  _104
REMARK   44  A    between atoms: _104  and  _105
REMARK   45  A    between atoms: _104  and  _107
REMARK   46  A    between atoms: _107  and  _108
REMARK   47  A    between atoms: _111  and  _113
REMARK   48  A    between atoms: _113  and  _114
REMARK   49  A    between atoms: _113  and  _116
REMARK   50  A    between atoms: _119  and  _121
REMARK   51  A    between atoms: _121  and  _122
REMARK   52  A    between atoms: _121  and  _124
REMARK   53  A    between atoms: _124  and  _125
REMARK   54  A    between atoms: _125  and  _126
REMARK   55  A    between atoms: _126  and  _127
REMARK   56  A    between atoms: _127  and  _128
REMARK   57  A    between atoms: _132  and  _134
REMARK   58  A    between atoms: _134  and  _135
REMARK   59  A    between atoms: _134  and  _137
REMARK   60  A    between atoms: _137  and  _138
REMARK   61  A    between atoms: _138  and  _139
REMARK   62  A    between atoms: _141  and  _143
REMARK   63  A    between atoms: _143  and  _144
REMARK   64  A    between atoms: _143  and  _146
REMARK   65  A    between atoms: _146  and  _147
REMARK   66  A    between atoms: _150  and  _152
REMARK   67  A    between atoms: _152  and  _153
REMARK   68  A    between atoms: _155  and  _157
REMARK   69  A    between atoms: _157  and  _158
REMARK   70  A    between atoms: _160  and  _162
REMARK   71  A    between atoms: _162  and  _163
REMARK   72  A    between atoms: _162  and  _165
REMARK   73  A    between atoms: _165  and  _166
REMARK   74  A    between atoms: _169  and  _171
REMARK   75  A    between atoms: _171  and  _172
REMARK   76  A    between atoms: _174  and  _176
REMARK   77  A    between atoms: _176  and  _177
REMARK   78  A    between atoms: _179  and  _181
REMARK   79  A    between atoms: _181  and  _182
REMARK   80  A    between atoms: _181  and  _184
REMARK   81  A    between atoms: _184  and  _185
REMARK   82  A    between atoms: _191  and  _193
REMARK   83  A    between atoms: _193  and  _194
REMARK   84  A    between atoms: _193  and  _196
REMARK   85  A    between atoms: _196  and  _197
REMARK   86  A    between atoms: _200  and  _202
REMARK   87  A    between atoms: _202  and  _203
REMARK   88  A    between atoms: _202  and  _205
REMARK   89  A    between atoms: _208  and  _210
REMARK   90  A    between atoms: _210  and  _211
REMARK   91  A    between atoms: _210  and  _213
REMARK   92  A    between atoms: _213  and  _214
REMARK   93  A    between atoms: _218  and  _219
REMARK   94  A    between atoms: _224  and  _226
REMARK   95  A    between atoms: _226  and  _227
REMARK   96  A    between atoms: _226  and  _229
REMARK   97  A    between atoms: _229  and  _230
REMARK   98  A    between atoms: _234  and  _235
REMARK   99  A    between atoms: _240  and  _242
REMARK  100  A    between atoms: _242  and  _243
REMARK  101  A    between atoms: _242  and  _245
REMARK  102  A    between atoms: _248  and  _250
REMARK  103  A    between atoms: _250  and  _251
REMARK  104  A    between atoms: _250  and  _253
REMARK  105  A    between atoms: _253  and  _254
REMARK  106  A    between atoms: _259  and  _261
REMARK  107  A    between atoms: _261  and  _262
REMARK  108  A    between atoms: _261  and  _264
REMARK  109  A    between atoms: _267  and  _269
REMARK  110  A    between atoms: _269  and  _270
REMARK  111  A    between atoms: _269  and  _272
REMARK  112  A    between atoms: _272  and  _273
REMARK  113  A    between atoms: _276  and  _278
REMARK  114  A    between atoms: _278  and  _279
REMARK  115  A    between atoms: _281  and  _283
REMARK  116  A    between atoms: _283  and  _284
REMARK  117  A    between atoms: _283  and  _286
REMARK  118  A    between atoms: _287  and  _288
REMARK  119  A    between atoms: _288  and  _289
REMARK  120  A    between atoms: _298  and  _300
REMARK  121  A    between atoms: _300  and  _301
REMARK  122  A    between atoms: _300  and  _303
REMARK  123  A    between atoms: _303  and  _304
REMARK  124  A    between atoms: _309  and  _311
REMARK  125  A    between atoms: _311  and  _312
REMARK  126  A    between atoms: _311  and  _314
REMARK  127  A    between atoms: _314  and  _315
REMARK  128  A    between atoms: _315  and  _316
REMARK  129  A    between atoms: _316  and  _317
REMARK  130  A    between atoms: _326  and  _328
REMARK  131  A    between atoms: _328  and  _329
REMARK  132  A    between atoms: _328  and  _331
REMARK  133  A    between atoms: _331  and  _332
REMARK  134  A    between atoms: _335  and  _337
REMARK  135  A    between atoms: _337  and  _338
REMARK  136  A    between atoms: _337  and  _340
REMARK  137  A    between atoms: _340  and  _341
REMARK  138  A    between atoms: _344  and  _346
REMARK  139  A    between atoms: _346  and  _347
REMARK  140  A    between atoms: _346  and  _349
REMARK  141  A    between atoms: _349  and  _350
REMARK  142  A    between atoms: _353  and  _355
REMARK  143  A    between atoms: _355  and  _356
REMARK  144  A    between atoms: _355  and  _358
REMARK  145  A    between atoms: _358  and  _359
REMARK  146  A    between atoms: _362  and  _364
REMARK  147  A    between atoms: _364  and  _365
REMARK  148  A    between atoms: _367  and  _369
REMARK  149  A    between atoms: _369  and  _370
REMARK  150  A    between atoms: _373  and  _375
REMARK  151  A    between atoms: _375  and  _376
REMARK  152  A    between atoms: _375  and  _378
REMARK  153  A    between atoms: _378  and  _379
REMARK  154  A    between atoms: _382  and  _384
REMARK  155  A    between atoms: _384  and  _385
REMARK  156  A    between atoms: _384  and  _387
REMARK  157  A    between atoms: _387  and  _388
REMARK  158  A    between atoms: _391  and  _393
REMARK  159  A    between atoms: _393  and  _394
REMARK  160  A    between atoms: _393  and  _396
REMARK  161  A    between atoms: _396  and  _397
REMARK  162  A    between atoms: _400  and  _402
REMARK  163  A    between atoms: _402  and  _403
REMARK  164  A    between atoms: _402  and  _405
REMARK  165  A    between atoms: _408  and  _410
REMARK  166  A    between atoms: _410  and  _411
REMARK  167  A    between atoms: _410  and  _413
REMARK  168  A    between atoms: _413  and  _414
REMARK  169  A    between atoms: _414  and  _415
REMARK  170  A    between atoms: _415  and  _416
REMARK  171  A    between atoms: _416  and  _417
REMARK  172  A    between atoms: _421  and  _423
REMARK  173  A    between atoms: _423  and  _424
REMARK  174  A    between atoms: _423  and  _426
REMARK  175  A    between atoms: _426  and  _427
REMARK  176  A    between atoms: _427  and  _428
REMARK  177  A    between atoms: _430  and  _432
REMARK  178  A    between atoms: _432  and  _433
REMARK  179  A    between atoms: _432  and  _435
REMARK  180  A    between atoms: _435  and  _436
REMARK  181  A    between atoms: _439  and  _441
REMARK  182  A    between atoms: _441  and  _442
REMARK  183  A    between atoms: _444  and  _446
REMARK  184  A    between atoms: _446  and  _447
REMARK  185  A    between atoms: _449  and  _451
REMARK  186  A    between atoms: _451  and  _452
REMARK  187  A    between atoms: _451  and  _454
REMARK  188  A    between atoms: _454  and  _455
REMARK  189  A    between atoms: _458  and  _460
REMARK  190  A    between atoms: _460  and  _461
REMARK  191  A    between atoms: _463  and  _465
REMARK  192  A    between atoms: _465  and  _466
REMARK  193  A    between atoms: _468  and  _470
REMARK  194  A    between atoms: _470  and  _471
REMARK  195  A    between atoms: _470  and  _473
REMARK  196  A    between atoms: _473  and  _474
REMARK  197  A    between atoms: _480  and  _482
REMARK  198  A    between atoms: _482  and  _483
REMARK  199  A    between atoms: _482  and  _485
REMARK  200  A    between atoms: _485  and  _486
REMARK  201  A    between atoms: _489  and  _491
REMARK  202  A    between atoms: _491  and  _492
REMARK  203  A    between atoms: _491  and  _494
REMARK  204  A    between atoms: _497  and  _499
REMARK  205  A    between atoms: _499  and  _500
REMARK  206  A    between atoms: _499  and  _502
REMARK  207  A    between atoms: _502  and  _503
REMARK  208  A    between atoms: _507  and  _508
REMARK  209  A    between atoms: _513  and  _515
REMARK  210  A    between atoms: _515  and  _516
REMARK  211  A    between atoms: _515  and  _518
REMARK  212  A    between atoms: _518  and  _519
REMARK  213  A    between atoms: _523  and  _524
REMARK  214  A    between atoms: _529  and  _531
REMARK  215  A    between atoms: _531  and  _532
REMARK  216  A    between atoms: _531  and  _534
REMARK  217  A    between atoms: _537  and  _539
REMARK  218  A    between atoms: _539  and  _540
REMARK  219  A    between atoms: _539  and  _542
REMARK  220  A    between atoms: _542  and  _543
REMARK  221  A    between atoms: _548  and  _550
REMARK  222  A    between atoms: _550  and  _551
REMARK  223  A    between atoms: _550  and  _553
REMARK  224  A    between atoms: _556  and  _558
REMARK  225  A    between atoms: _558  and  _559
REMARK  226  A    between atoms: _558  and  _561
REMARK  227  A    between atoms: _561  and  _562
REMARK  228  A    between atoms: _565  and  _567
REMARK  229  A    between atoms: _567  and  _568
REMARK  230  A    between atoms: _570  and  _572
REMARK  231  A    between atoms: _572  and  _573
REMARK  232  A    between atoms: _572  and  _575
REMARK  233  A    between atoms: _575  and  _576
REMARK  234  A    between atoms: _576  and  _577
REMARK  235  A    between atoms: _577  and  _578
REMARK  236  A    between atoms: _587  and  _589
REMARK  237  A    between atoms: _589  and  _590
REMARK  238  A    between atoms: _589  and  _592
REMARK  239  A    between atoms: _592  and  _593
REMARK                            x       y       z     vdW  Elec       q    Type
REMARK                         _______ _______ _______ _____ _____    ______ ____
ROOT
ATOM      1  CA  LEU A   1      12.926  13.366  27.937  0.00  0.00    +0.133 C 
ENDROOT
BRANCH   1   2
ATOM      2  N   LEU A   1      12.130  14.278  28.740  0.00  0.00    -0.239 NA
ATOM      3  H   LEU A   1      12.079  15.276  28.453  0.00  0.00    +0.142 HD
ENDBRANCH   1   2
BRANCH   1   4
ATOM      4  C   LEU A   1      14.382  13.515  28.302  0.00  0.00    +0.224 C 
ATOM      5  O   LEU A   1      14.854  14.661  28.469  0.00  0.00    -0.287 OA
ENDBRANCH   1   4
BRANCH   1   6
ATOM      6  CB  LEU A   1      12.740  13.640  26.436  0.00  0.00    +0.025 C 
BRANCH   6   7
ATOM      7  CG  LEU A   1      11.298  13.748  25.939  0.00  0.00    +0.002 C 
ATOM      8  CD2 LEU A   1      10.480  12.510  26.267  0.00  0.00    +0.000 C 
ATOM      9  CD1 LEU A   1      11.245  14.041  24.470  0.00  0.00    +0.000 C 
ENDBRANCH   6   7
ENDBRANCH   1   6
TORSDOF 4
REMARK  Name = ../refined-set-2016/2aoc/2aoc_pocket.pdb
REMARK  239 active torsions:
REMARK  status: ('A' for Active; 'I' for Inactive)
REMARK    1  A    between atoms: _1  and  _3
REMARK    2  A    between atoms: _3  and  _4
REMARK    3  A    between atoms: _3  and  _6
REMARK    4  A    between atoms: _6  and  _7
REMARK    5  A    between atoms: _7  and  _8
REMARK    6  A    between atoms: _8  and  _9
REMARK    7  A    between atoms: _18  and  _20
REMARK    8  A    between atoms: _20  and  _21
REMARK    9  A    between atoms: _20  and  _23
REMARK   10  A    between atoms: _23  and  _24
REMARK   11  A    between atoms: _27  and  _29
REMARK   12  A    between atoms: _29  and  _30
REMARK   13  A    between atoms: _29  and  _32
REMARK   14  A    between atoms: _33  and  _34
REMARK   15  A    between atoms: _37  and  _39
REMARK   16  A    between atoms: _39  and  _40
REMARK   17  A    between atoms: _39  and  _42
REMARK   18  A    between atoms: _42  and  _43
REMARK   19  A    between atoms: _46  and  _48
REMARK   20  A    between atoms: _48  and  _49
REMARK   21  A    between atoms: _48  and  _51
REMARK   22  A    between atoms: _51  and  _52
REMARK   23  A    between atoms: _55  and  _57
REMARK   24  A    between atoms: _57  and  _58
REMARK   25  A    between atoms: _57  and  _60
REMARK   26  A    between atoms: _60  and  _61
REMARK   27  A    between atoms: _64  and  _66
REMARK   28  A    between atoms: _66  and  _67
REMARK   29  A    between atoms: _66  and  _69
REMARK   30  A    between atoms: _69  and  _70
REMARK   31  A    between atoms: _73  and  _75
REMARK   32  A    between atoms: _75  and  _76
REMARK   33  A    between atoms: _78  and  _80
REMARK   34  A    between atoms: _80  and  _81
REMARK   35  A    between atoms: _84  and  _86
REMARK   36  A    between atoms: _86  and  _87
REMARK   37  A    between atoms: _86  and  _89
REMARK   38  A    between atoms: _89  and  _90
REMARK   39  A    between atoms: _93  and  _95
REMARK   40  A    between atoms: _95  and  _96
REMARK   41  A    between atoms: _95  and  _98
REMARK   42  A    between atoms: _98  and  _99
REMARK   43  A    between atoms: _102  and  _104
REMARK   44  A    between atoms: _104  and  _105
REMARK   45  A    between atoms: _104  and  _107
REMARK   46  A    between atoms: _107  and  _108
REMARK   47  A    between atoms: _111  and  _113
REMARK   48  A    between atoms: _113  and  _114
REMARK   49  A    between atoms: _113  and  _116
REMARK   50  A    between atoms: _119  and  _121
REMARK   51  A    between atoms: _121  and  _122
REMARK   52  A    between atoms: _121  and  _124
REMARK   53  A    between atoms: _124  and  _125
REMARK   54  A    between atoms: _125  and  _126
REMARK   55  A    between atoms: _126  and  _127
REMARK   56  A    between atoms: _127  and  _128
REMARK   57  A    between atoms: _132  and  _134
REMARK   58  A    between atoms: _134  and  _135
REMARK   59  A    between atoms: _134  and  _137
REMARK   60  A    between atoms: _137  and  _138
REMARK   61  A    between atoms: _138  and  _139
REMARK   62  A    between atoms: _141  and  _143
REMARK   63  A    between atoms: _143  and  _144
REMARK   64  A    between atoms: _143  and  _146
REMARK   65  A    between atoms: _146  and  _147
REMARK   66  A    between atoms: _150  and  _152
REMARK   67  A    between atoms: _152  and  _153
REMARK   68  A    between atoms: _155  and  _157
REMARK   69  A    between atoms: _157  and  _158
REMARK   70  A    between atoms: _160  and  _162
REMARK   71  A    between atoms: _162  and  _163
REMARK   72  A    between atoms: _162  and  _165
REMARK   73  A    between atoms: _165  and  _166
REMARK   74  A    between atoms: _169  and  _171
REMARK   75  A    between atoms: _171  and  _172
REMARK   76  A    between atoms: _174  and  _176
REMARK   77  A    between atoms: _176  and  _177
REMARK   78  A    between atoms: _179  and  _181
REMARK   79  A    between atoms: _181  and  _182
REMARK   80  A    between atoms: _181  and  _184
REMARK   81  A    between atoms: _184  and  _185
REMARK   82  A    between atoms: _191  and  _193
REMARK   83  A    between atoms: _193  and  _194
REMARK   84  A    between atoms: _193  and  _196
REMARK   85  A    between atoms: _196  and  _197
REMARK   86  A    between atoms: _200  and  _202
REMARK   87  A    between atoms: _202  and  _203
REMARK   88  A    between atoms: _202  and  _205
REMARK   89  A    between atoms: _208  and  _210
REMARK   90  A    between atoms: _210  and  _211
REMARK   91  A    between atoms: _210  and  _213
REMARK   92  A    between atoms: _213  and  _214
REMARK   93  A    between atoms: _218  and  _219
REMARK   94  A    between atoms: _224  and  _226
REMARK   95  A    between atoms: _226  and  _227
REMARK   96  A    between atoms: _226  and  _229
REMARK   97  A    between atoms: _229  and  _230
REMARK   98  A    between atoms: _234  and  _235
REMARK   99  A    between atoms: _240  and  _242
REMARK  100  A    between atoms: _242  and  _243
REMARK  101  A    between atoms: _242  and  _245
REMARK  102  A    between atoms: _248  and  _250
REMARK  103  A    between atoms: _250  and  _251
REMARK  104  A    between atoms: _250  and  _253
REMARK  105  A    between atoms: _253  and  _254
REMARK  106  A    between atoms: _259  and  _261
REMARK  107  A    between atoms: _261  and  _262
REMARK  108  A    between atoms: _261  and  _264
REMARK  109  A    between atoms: _267  and  _269
REMARK  110  A    between atoms: _269  and  _270
REMARK  111  A    between atoms: _269  and  _272
REMARK  112  A    between atoms: _272  and  _273
REMARK  113  A    between atoms: _276  and  _278
REMARK  114  A    between atoms: _278  and  _279
REMARK  115  A    between atoms: _281  and  _283
REMARK  116  A    between atoms: _283  and  _284
REMARK  117  A    between atoms: _283  and  _286
REMARK  118  A    between atoms: _287  and  _288
REMARK  119  A    between atoms: _288  and  _289
REMARK  120  A    between atoms: _298  and  _300
REMARK  121  A    between atoms: _300  and  _301
REMARK  122  A    between atoms: _300  and  _303
REMARK  123  A    between atoms: _303  and  _304
REMARK  124  A    between atoms: _309  and  _311
REMARK  125  A    between atoms: _311  and  _312
REMARK  126  A    between atoms: _311  and  _314
REMARK  127  A    between atoms: _314  and  _315
REMARK  128  A    between atoms: _315  and  _316
REMARK  129  A    between atoms: _316  and  _317
REMARK  130  A    between atoms: _326  and  _328
REMARK  131  A    between atoms: _328  and  _329
REMARK  132  A    between atoms: _328  and  _331
REMARK  133  A    between atoms: _331  and  _332
REMARK  134  A    between atoms: _335  and  _337
REMARK  135  A    between atoms: _337  and  _338
REMARK  136  A    between atoms: _337  and  _340
REMARK  137  A    between atoms: _340  and  _341
REMARK  138  A    between atoms: _344  and  _346
REMARK  139  A    between atoms: _346  and  _347
REMARK  140  A    between atoms: _346  and  _349
REMARK  141  A    between atoms: _349  and  _350
REMARK  142  A    between atoms: _353  and  _355
REMARK  143  A    between atoms: _355  and  _356
REMARK  144  A    between atoms: _355  and  _358
REMARK  145  A    between atoms: _358  and  _359
REMARK  146  A    between atoms: _362  and  _364
REMARK  147  A    between atoms: _364  and  _365
REMARK  148  A    between atoms: _367  and  _369
REMARK  149  A    between atoms: _369  and  _370
REMARK  150  A    between atoms: _373  and  _375
REMARK  151  A    between atoms: _375  and  _376
REMARK  152  A    between atoms: _375  and  _378
REMARK  153  A    between atoms: _378  and  _379
REMARK  154  A    between atoms: _382  and  _384
REMARK  155  A    between atoms: _384  and  _385
REMARK  156  A    between atoms: _384  and  _387
REMARK  157  A    between atoms: _387  and  _388
REMARK  158  A    between atoms: _391  and  _393
REMARK  159  A    between atoms: _393  and  _394
REMARK  160  A    between atoms: _393  and  _396
REMARK  161  A    between atoms: _396  and  _397
REMARK  162  A    between atoms: _400  and  _402
REMARK  163  A    between atoms: _402  and  _403
REMARK  164  A    between atoms: _402  and  _405
REMARK  165  A    between atoms: _408  and  _410
REMARK  166  A    between atoms: _410  and  _411
REMARK  167  A    between atoms: _410  and  _413
REMARK  168  A    between atoms: _413  and  _414
REMARK  169  A    between atoms: _414  and  _415
REMARK  170  A    between atoms: _415  and  _416
REMARK  171  A    between atoms: _416  and  _417
REMARK  172  A    between atoms: _421  and  _423
REMARK  173  A    between atoms: _423  and  _424
REMARK  174  A    between atoms: _423  and  _426
REMARK  175  A    between atoms: _426  and  _427
REMARK  176  A    between atoms: _427  and  _428
REMARK  177  A    between atoms: _430  and  _432
REMARK  178  A    between atoms: _432  and  _433
REMARK  179  A    between atoms: _432  and  _435
REMARK  180  A    between atoms: _435  and  _436
REMARK  181  A    between atoms: _439  and  _441
REMARK  182  A    between atoms: _441  and  _442
REMARK  183  A    between atoms: _444  and  _446
REMARK  184  A    between atoms: _446  and  _447
REMARK  185  A    between atoms: _449  and  _451
REMARK  186  A    between atoms: _451  and  _452
REMARK  187  A    between atoms: _451  and  _454
REMARK  188  A    between atoms: _454  and  _455
REMARK  189  A    between atoms: _458  and  _460
REMARK  190  A    between atoms: _460  and  _461
REMARK  191  A    between atoms: _463  and  _465
REMARK  192  A    between atoms: _465  and  _466
REMARK  193  A    between atoms: _468  and  _470
REMARK  194  A    between atoms: _470  and  _471
REMARK  195  A    between atoms: _470  and  _473
REMARK  196  A    between atoms: _473  and  _474
REMARK  197  A    between atoms: _480  and  _482
REMARK  198  A    between atoms: _482  and  _483
REMARK  199  A    between atoms: _482  and  _485
REMARK  200  A    between atoms: _485  and  _486
REMARK  201  A    between atoms: _489  and  _491
REMARK  202  A    between atoms: _491  and  _492
REMARK  203  A    between atoms: _491  and  _494
REMARK  204  A    between atoms: _497  and  _499
REMARK  205  A    between atoms: _499  and  _500
REMARK  206  A    between atoms: _499  and  _502
REMARK  207  A    between atoms: _502  and  _503
REMARK  208  A    between atoms: _507  and  _508
REMARK  209  A    between atoms: _513  and  _515
REMARK  210  A    between atoms: _515  and  _516
REMARK  211  A    between atoms: _515  and  _518
REMARK  212  A    between atoms: _518  and  _519
REMARK  213  A    between atoms: _523  and  _524
REMARK  214  A    between atoms: _529  and  _531
REMARK  215  A    between atoms: _531  and  _532
REMARK  216  A    between atoms: _531  and  _534
REMARK  217  A    between atoms: _537  and  _539
REMARK  218  A    between atoms: _539  and  _540
REMARK  219  A    between atoms: _539  and  _542
REMARK  220  A    between atoms: _542  and  _543
REMARK  221  A    between atoms: _548  and  _550
REMARK  222  A    between atoms: _550  and  _551
REMARK  223  A    between atoms: _550  and  _553
REMARK  224  A    between atoms: _556  and  _558
REMARK  225  A    between atoms: _558  and  _559
REMARK  226  A    between atoms: _558  and  _561
REMARK  227  A    between atoms: _561  and  _562
REMARK  228  A    between atoms: _565  and  _567
REMARK  229  A    between atoms: _567  and  _568
REMARK  230  A    between atoms: _570  and  _572
REMARK  231  A    between atoms: _572  and  _573
REMARK  232  A    between atoms: _572  and  _575
REMARK  233  A    between atoms: _575  and  _576
REMARK  234  A    between atoms: _576  and  _577
REMARK  235  A    between atoms: _577  and  _578
REMARK  236  A    between atoms: _587  and  _589
REMARK  237  A    between atoms: _589  and  _590
REMARK  238  A    between atoms: _589  and  _592
REMARK  239  A    between atoms: _592  and  _593
REMARK                            x       y       z     vdW  Elec       q    Type
REMARK                         _______ _______ _______ _____ _____    ______ ____
ROOT
ATOM      1  CA  VAL A   6      15.568  22.575  26.385  0.00  0.00    +0.149 C 
ENDROOT
BRANCH   1   4
ATOM      2  C   ASN A   5      17.750  22.308  27.404  0.00  0.00    +0.241 C 
ATOM      3  O   ASN A   5      17.997  23.524  27.351  0.00  0.00    -0.273 OA
ATOM      4  N   VAL A   6      16.602  21.783  27.028  0.00  0.00    -0.297 N 
ATOM      5  H   VAL A   6      16.431  20.771  27.197  0.00  0.00    +0.150 HD
BRANCH   2   6
ATOM      6  CA  ASN A   5      18.774  21.363  28.011  0.00  0.00    +0.158 C 
BRANCH   6   8
ATOM      7  C   VAL A   4      20.291  21.230  26.143  0.00  0.00    +0.241 C 
ATOM      8  N   ASN A   5      20.086  21.573  27.404  0.00  0.00    -0.297 N 
ATOM      9  H   ASN A   5      20.857  21.991  27.962  0.00  0.00    +0.150 HD
ATOM     10  O   VAL A   4      19.435  20.639  25.464  0.00  0.00    -0.273 OA
BRANCH   7  11
ATOM     11  CA  VAL A   4      21.578  21.679  25.506  0.00  0.00    +0.149 C 
BRANCH  11  14
ATOM     12  C   PRO A   3      23.215  20.324  24.268  0.00  0.00    +0.241 C 
ATOM     13  O   PRO A   3      24.181  20.833  24.813  0.00  0.00    -0.273 OA
ATOM     14  N   VAL A   4      21.961  20.653  24.521  0.00  0.00    -0.297 N 
ATOM     15  H   VAL A   4      21.207  20.163  23.999  0.00  0.00    +0.150 HD
BRANCH  12  19
ATOM     16  C   THR A   2      21.977  17.558  23.833  0.00  0.00    +0.246 C 
ATOM     17  O   THR A   2      22.595  17.486  24.898  0.00  0.00    -0.273 OA
ATOM     18  N   PRO A   3      22.336  18.428  22.888  0.00  0.00    -0.272 N 
ATOM     19  CA  PRO A   3      23.442  19.342  23.141  0.00  0.00    +0.152 C 
ATOM     20  CB  PRO A   3      23.593  20.121  21.829  0.00  0.00    +0.031 C 
ATOM     21  CG  PRO A   3      22.903  19.313  20.787  0.00  0.00    +0.024 C 
ATOM     22  CD  PRO A   3      21.856  18.508  21.513  0.00  0.00    +0.094 C 
BRANCH  16  23
ATOM     23  CA  THR A   2      20.765  16.690  23.573  0.00  0.00    +0.176 C 
BRANCH  23  25
ATOM     24  C   PRO A   1      21.777  14.482  23.420  0.00  0.00    +0.239 C 
ATOM     25  N   THR A   2      21.017  15.364  24.063  0.00  0.00    -0.295 N 
ATOM     26  H   THR A   2      20.584  15.079  24.965  0.00  0.00    +0.150 HD
ATOM     27  O   PRO A   1      22.189  14.704  22.307  0.00  0.00    -0.274 OA
BRANCH  24  29
ATOM     28  N   PRO A   1      20.924  12.450  24.679  0.00  0.00    -0.210 NA
ATOM     29  CA  PRO A   1      22.085  13.224  24.196  0.00  0.00    +0.149 C 
ATOM     30  CB  PRO A   1      22.806  12.180  23.301  0.00  0.00    +0.028 C 
ATOM     31  CG  PRO A   1      21.678  11.322  22.794  0.00  0.00    +0.021 C 
ATOM     32  CD  PRO A   1      20.667  11.203  23.914  0.00  0.00    +0.089 C 
ENDBRANCH  24  29
ENDBRANCH  23  25
BRANCH  23  33
ATOM     33  CB  THR A   2      19.521  17.343  24.205  0.00  0.00    +0.137 C 
ATOM     34  CG2 THR A   2      19.613  17.432  25.708  0.00  0.00    +0.034 C 
BRANCH  33  35
ATOM     35  OG1 THR A   2      19.353  18.622  23.654  0.00  0.00    -0.382 OA
ATOM     36  HG1 THR A   2      18.555  19.050  24.054  0.00  0.00    +0.210 HD
ENDBRANCH  33  35
ENDBRANCH  23  33
ENDBRANCH  16  23
ENDBRANCH  12  19
ENDBRANCH  11  14
BRANCH  11  37
ATOM     37  CB  VAL A   4      21.452  23.118  25.005  0.00  0.00    +0.027 C 
ATOM     38  CG2 VAL A   4      22.730  23.586  24.313  0.00  0.00    +0.002 C 
ATOM     39  CG1 VAL A   4      20.306  23.227  24.039  0.00  0.00    +0.002 C 
ENDBRANCH  11  37
ENDBRANCH   7  11
ENDBRANCH   6   8
BRANCH   6  40
ATOM     40  CB  ASN A   5      18.868  21.632  29.501  0.00  0.00    +0.114 C 
BRANCH  40  41
ATOM     41  CG  ASN A   5      19.797  20.701  30.213  0.00  0.00    +0.222 C 
ATOM     42  ND2 ASN A   5      20.350  21.194  31.322  0.00  0.00    -0.329 N 
ATOM     43 HD21 ASN A   5      20.953  20.589  31.915  0.00  0.00    +0.145 HD
ATOM     44 HD22 ASN A   5      20.178  22.183  31.593  0.00  0.00    +0.145 HD
ATOM     45  OD1 ASN A   5      19.981  19.532  29.863  0.00  0.00    -0.275 OA
ENDBRANCH  40  41
ENDBRANCH   6  40
ENDBRANCH   2   6
ENDBRANCH   1   4
BRANCH   1  46
ATOM     46  C   VAL A   6      14.231  22.366  27.081  0.00  0.00    +0.241 C 
ATOM     47  N   ILE A   7      13.554  23.455  27.355  0.00  0.00    -0.297 N 
ATOM     48  H   ILE A   7      14.019  24.373  27.202  0.00  0.00    +0.150 HD
ATOM     49  O   VAL A   6      13.811  21.240  27.348  0.00  0.00    -0.273 OA
BRANCH  47  50
ATOM     50  CA  ILE A   7      12.183  23.453  27.863  0.00  0.00    +0.149 C 
BRANCH  50  51
ATOM     51  C   ILE A   7      11.268  23.714  26.665  0.00  0.00    +0.241 C 
ATOM     52  N   GLY A   8      10.486  22.717  26.312  0.00  0.00    -0.295 N 
ATOM     53  H   GLY A   8      10.499  21.847  26.882  0.00  0.00    +0.150 HD
ATOM     54  O   ILE A   7      11.314  24.795  26.072  0.00  0.00    -0.273 OA
BRANCH  52  55
ATOM     55  CA  GLY A   8       9.616  22.780  25.172  0.00  0.00    +0.176 C 
BRANCH  55  56
ATOM     56  C   GLY A   8       8.184  23.112  25.510  0.00  0.00    +0.243 C 
ATOM     57  O   GLY A   8       7.837  23.392  26.651  0.00  0.00    -0.273 OA
ATOM     58  N   ARG A   9       7.354  23.041  24.475  0.00  0.00    -0.297 N 
ATOM     59  H   ARG A   9       7.663  22.615  23.578  0.00  0.00    +0.150 HD
BRANCH  58  60
ATOM     60  CA  ARG A   9       6.017  23.565  24.615  0.00  0.00    +0.149 C 
BRANCH  60  61
ATOM     61  C   ARG A   9       5.172  22.818  25.615  0.00  0.00    +0.241 C 
ATOM     62  O   ARG A   9       4.261  23.382  26.230  0.00  0.00    -0.273 OA
ATOM     63  N   ASN A  10       5.449  21.537  25.837  0.00  0.00    -0.298 N 
ATOM     64  H   ASN A  10       6.221  21.079  25.312  0.00  0.00    +0.150 HD
BRANCH  63  65
ATOM     65  CA  ASN A  10       4.675  20.760  26.817  0.00  0.00    +0.146 C 
BRANCH  65  66
ATOM     66  C   ASN A  10       4.710  21.411  28.213  0.00  0.00    +0.227 C 
ATOM     67  O   ASN A  10       3.715  21.367  28.917  0.00  0.00    -0.286 OA
ENDBRANCH  65  66
BRANCH  65  68
ATOM     68  CB  ASN A  10       5.127  19.328  26.908  0.00  0.00    +0.112 C 
BRANCH  68  69
ATOM     69  CG  ASN A  10       6.462  19.086  27.560  0.00  0.00    +0.222 C 
ATOM     70  ND2 ASN A  10       6.482  18.212  28.550  0.00  0.00    -0.329 N 
ATOM     71 HD21 ASN A  10       7.372  18.011  29.048  0.00  0.00    +0.145 HD
ATOM     72 HD22 ASN A  10       5.607  17.725  28.831  0.00  0.00    +0.145 HD
ATOM     73  OD1 ASN A  10       7.452  19.715  27.154  0.00  0.00    -0.275 OA
ENDBRANCH  68  69
ENDBRANCH  65  68
ENDBRANCH  63  65
ENDBRANCH  60  61
BRANCH  60  74
ATOM     74  CB  ARG A   9       5.303  23.563  23.248  0.00  0.00    +0.033 C 
BRANCH  74  75
ATOM     75  CG  ARG A   9       5.910  24.543  22.269  0.00  0.00    +0.045 C 
BRANCH  75  76
ATOM     76  CD  ARG A   9       5.135  24.731  20.946  0.00  0.00    +0.174 C 
BRANCH  76  77
ATOM     77  NE  ARG A   9       5.108  23.452  20.230  0.00  0.00    -0.265 N 
ATOM     78  CZ  ARG A   9       4.132  22.567  20.263  0.00  0.00    +0.342 C 
ATOM     79  NH2 ARG A   9       2.991  22.755  20.916  0.00  0.00    -0.292 N 
ATOM     80 HH21 ARG A   9       2.831  23.640  21.439  0.00  0.00    +0.255 HD
ATOM     81 HH22 ARG A   9       2.258  22.018  20.904  0.00  0.00    +0.255 HD
ATOM     82  NH1 ARG A   9       4.289  21.413  19.584  0.00  0.00    -0.292 N 
ATOM     83 HH11 ARG A   9       3.534  20.697  19.593  0.00  0.00    +0.255 HD
ATOM     84 HH12 ARG A   9       5.165  21.238  19.051  0.00  0.00    +0.255 HD
ATOM     85  HE  ARG A   9       5.935  23.222  19.642  0.00  0.00    +0.259 HD
ENDBRANCH  76  77
ENDBRANCH  75  76
ENDBRANCH  74  75
ENDBRANCH  60  74
ENDBRANCH  58  60
ENDBRANCH  55  56
ENDBRANCH  52  55
ENDBRANCH  50  51
BRANCH  50  86
ATOM     86  CB  ILE A   7      11.973  24.518  28.938  0.00  0.00    +0.027 C 
ATOM     87  CG2 ILE A   7      10.550  24.468  29.450  0.00  0.00    +0.002 C 
BRANCH  86  88
ATOM     88  CG1 ILE A   7      12.995  24.417  30.077  0.00  0.00    +0.002 C 
ATOM     89  CD1 ILE A   7      13.099  23.036  30.702  0.00  0.00    +0.000 C 
ENDBRANCH  86  88
ENDBRANCH  50  86
ENDBRANCH  47  50
ENDBRANCH   1  46
BRANCH   1  90
ATOM     90  CB  VAL A   6      15.393  22.444  24.863  0.00  0.00    +0.027 C 
ATOM     91  CG2 VAL A   6      14.864  21.090  24.507  0.00  0.00    +0.002 C 
ATOM     92  CG1 VAL A   6      16.712  22.694  24.161  0.00  0.00    +0.002 C 
ENDBRANCH   1  90
TORSDOF 32
REMARK  Name = ../refined-set-2016/2aoc/2aoc_pocket.pdb
REMARK  239 active torsions:
REMARK  status: ('A' for Active; 'I' for Inactive)
REMARK    1  A    between atoms: _1  and  _3
REMARK    2  A    between atoms: _3  and  _4
REMARK    3  A    between atoms: _3  and  _6
REMARK    4  A    between atoms: _6  and  _7
REMARK    5  A    between atoms: _7  and  _8
REMARK    6  A    between atoms: _8  and  _9
REMARK    7  A    between atoms: _18  and  _20
REMARK    8  A    between atoms: _20  and  _21
REMARK    9  A    between atoms: _20  and  _23
REMARK   10  A    between atoms: _23  and  _24
REMARK   11  A    between atoms: _27  and  _29
REMARK   12  A    between atoms: _29  and  _30
REMARK   13  A    between atoms: _29  and  _32
REMARK   14  A    between atoms: _33  and  _34
REMARK   15  A    between atoms: _37  and  _39
REMARK   16  A    between atoms: _39  and  _40
REMARK   17  A    between atoms: _39  and  _42
REMARK   18  A    between atoms: _42  and  _43
REMARK   19  A    between atoms: _46  and  _48
REMARK   20  A    between atoms: _48  and  _49
REMARK   21  A    between atoms: _48  and  _51
REMARK   22  A    between atoms: _51  and  _52
REMARK   23  A    between atoms: _55  and  _57
REMARK   24  A    between atoms: _57  and  _58
REMARK   25  A    between atoms: _57  and  _60
REMARK   26  A    between atoms: _60  and  _61
REMARK   27  A    between atoms: _64  and  _66
REMARK   28  A    between atoms: _66  and  _67
REMARK   29  A    between atoms: _66  and  _69
REMARK   30  A    between atoms: _69  and  _70
REMARK   31  A    between atoms: _73  and  _75
REMARK   32  A    between atoms: _75  and  _76
REMARK   33  A    between atoms: _78  and  _80
REMARK   34  A    between atoms: _80  and  _81
REMARK   35  A    between atoms: _84  and  _86
REMARK   36  A    between atoms: _86  and  _87
REMARK   37  A    between atoms: _86  and  _89
REMARK   38  A    between atoms: _89  and  _90
REMARK   39  A    between atoms: _93  and  _95
REMARK   40  A    between atoms: _95  and  _96
REMARK   41  A    between atoms: _95  and  _98
REMARK   42  A    between atoms: _98  and  _99
REMARK   43  A    between atoms: _102  and  _104
REMARK   44  A    between atoms: _104  and  _105
REMARK   45  A    between atoms: _104  and  _107
REMARK   46  A    between atoms: _107  and  _108
REMARK   47  A    between atoms: _111  and  _113
REMARK   48  A    between atoms: _113  and  _114
REMARK   49  A    between atoms: _113  and  _116
REMARK   50  A    between atoms: _119  and  _121
REMARK   51  A    between atoms: _121  and  _122
REMARK   52  A    between atoms: _121  and  _124
REMARK   53  A    between atoms: _124  and  _125
REMARK   54  A    between atoms: _125  and  _126
REMARK   55  A    between atoms: _126  and  _127
REMARK   56  A    between atoms: _127  and  _128
REMARK   57  A    between atoms: _132  and  _134
REMARK   58  A    between atoms: _134  and  _135
REMARK   59  A    between atoms: _134  and  _137
REMARK   60  A    between atoms: _137  and  _138
REMARK   61  A    between atoms: _138  and  _139
REMARK   62  A    between atoms: _141  and  _143
REMARK   63  A    between atoms: _143  and  _144
REMARK   64  A    between atoms: _143  and  _146
REMARK   65  A    between atoms: _146  and  _147
REMARK   66  A    between atoms: _150  and  _152
REMARK   67  A    between atoms: _152  and  _153
REMARK   68  A    between atoms: _155  and  _157
REMARK   69  A    between atoms: _157  and  _158
REMARK   70  A    between atoms: _160  and  _162
REMARK   71  A    between atoms: _162  and  _163
REMARK   72  A    between atoms: _162  and  _165
REMARK   73  A    between atoms: _165  and  _166
REMARK   74  A    between atoms: _169  and  _171
REMARK   75  A    between atoms: _171  and  _172
REMARK   76  A    between atoms: _174  and  _176
REMARK   77  A    between atoms: _176  and  _177
REMARK   78  A    between atoms: _179  and  _181
REMARK   79  A    between atoms: _181  and  _182
REMARK   80  A    between atoms: _181  and  _184
REMARK   81  A    between atoms: _184  and  _185
REMARK   82  A    between atoms: _191  and  _193
REMARK   83  A    between atoms: _193  and  _194
REMARK   84  A    between atoms: _193  and  _196
REMARK   85  A    between atoms: _196  and  _197
REMARK   86  A    between atoms: _200  and  _202
REMARK   87  A    between atoms: _202  and  _203
REMARK   88  A    between atoms: _202  and  _205
REMARK   89  A    between atoms: _208  and  _210
REMARK   90  A    between atoms: _210  and  _211
REMARK   91  A    between atoms: _210  and  _213
REMARK   92  A    between atoms: _213  and  _214
REMARK   93  A    between atoms: _218  and  _219
REMARK   94  A    between atoms: _224  and  _226
REMARK   95  A    between atoms: _226  and  _227
REMARK   96  A    between atoms: _226  and  _229
REMARK   97  A    between atoms: _229  and  _230
REMARK   98  A    between atoms: _234  and  _235
REMARK   99  A    between atoms: _240  and  _242
REMARK  100  A    between atoms: _242  and  _243
REMARK  101  A    between atoms: _242  and  _245
REMARK  102  A    between atoms: _248  and  _250
REMARK  103  A    between atoms: _250  and  _251
REMARK  104  A    between atoms: _250  and  _253
REMARK  105  A    between atoms: _253  and  _254
REMARK  106  A    between atoms: _259  and  _261
REMARK  107  A    between atoms: _261  and  _262
REMARK  108  A    between atoms: _261  and  _264
REMARK  109  A    between atoms: _267  and  _269
REMARK  110  A    between atoms: _269  and  _270
REMARK  111  A    between atoms: _269  and  _272
REMARK  112  A    between atoms: _272  and  _273
REMARK  113  A    between atoms: _276  and  _278
REMARK  114  A    between atoms: _278  and  _279
REMARK  115  A    between atoms: _281  and  _283
REMARK  116  A    between atoms: _283  and  _284
REMARK  117  A    between atoms: _283  and  _286
REMARK  118  A    between atoms: _287  and  _288
REMARK  119  A    between atoms: _288  and  _289
REMARK  120  A    between atoms: _298  and  _300
REMARK  121  A    between atoms: _300  and  _301
REMARK  122  A    between atoms: _300  and  _303
REMARK  123  A    between atoms: _303  and  _304
REMARK  124  A    between atoms: _309  and  _311
REMARK  125  A    between atoms: _311  and  _312
REMARK  126  A    between atoms: _311  and  _314
REMARK  127  A    between atoms: _314  and  _315
REMARK  128  A    between atoms: _315  and  _316
REMARK  129  A    between atoms: _316  and  _317
REMARK  130  A    between atoms: _326  and  _328
REMARK  131  A    between atoms: _328  and  _329
REMARK  132  A    between atoms: _328  and  _331
REMARK  133  A    between atoms: _331  and  _332
REMARK  134  A    between atoms: _335  and  _337
REMARK  135  A    between atoms: _337  and  _338
REMARK  136  A    between atoms: _337  and  _340
REMARK  137  A    between atoms: _340  and  _341
REMARK  138  A    between atoms: _344  and  _346
REMARK  139  A    between atoms: _346  and  _347
REMARK  140  A    between atoms: _346  and  _349
REMARK  141  A    between atoms: _349  and  _350
REMARK  142  A    between atoms: _353  and  _355
REMARK  143  A    between atoms: _355  and  _356
REMARK  144  A    between atoms: _355  and  _358
REMARK  145  A    between atoms: _358  and  _359
REMARK  146  A    between atoms: _362  and  _364
REMARK  147  A    between atoms: _364  and  _365
REMARK  148  A    between atoms: _367  and  _369
REMARK  149  A    between atoms: _369  and  _370
REMARK  150  A    between atoms: _373  and  _375
REMARK  151  A    between atoms: _375  and  _376
REMARK  152  A    between atoms: _375  and  _378
REMARK  153  A    between atoms: _378  and  _379
REMARK  154  A    between atoms: _382  and  _384
REMARK  155  A    between atoms: _384  and  _385
REMARK  156  A    between atoms: _384  and  _387
REMARK  157  A    between atoms: _387  and  _388
REMARK  158  A    between atoms: _391  and  _393
REMARK  159  A    between atoms: _393  and  _394
REMARK  160  A    between atoms: _393  and  _396
REMARK  161  A    between atoms: _396  and  _397
REMARK  162  A    between atoms: _400  and  _402
REMARK  163  A    between atoms: _402  and  _403
REMARK  164  A    between atoms: _402  and  _405
REMARK  165  A    between atoms: _408  and  _410
REMARK  166  A    between atoms: _410  and  _411
REMARK  167  A    between atoms: _410  and  _413
REMARK  168  A    between atoms: _413  and  _414
REMARK  169  A    between atoms: _414  and  _415
REMARK  170  A    between atoms: _415  and  _416
REMARK  171  A    between atoms: _416  and  _417
REMARK  172  A    between atoms: _421  and  _423
REMARK  173  A    between atoms: _423  and  _424
REMARK  174  A    between atoms: _423  and  _426
REMARK  175  A    between atoms: _426  and  _427
REMARK  176  A    between atoms: _427  and  _428
REMARK  177  A    between atoms: _430  and  _432
REMARK  178  A    between atoms: _432  and  _433
REMARK  179  A    between atoms: _432  and  _435
REMARK  180  A    between atoms: _435  and  _436
REMARK  181  A    between atoms: _439  and  _441
REMARK  182  A    between atoms: _441  and  _442
REMARK  183  A    between atoms: _444  and  _446
REMARK  184  A    between atoms: _446  and  _447
REMARK  185  A    between atoms: _449  and  _451
REMARK  186  A    between atoms: _451  and  _452
REMARK  187  A    between atoms: _451  and  _454
REMARK  188  A    between atoms: _454  and  _455
REMARK  189  A    between atoms: _458  and  _460
REMARK  190  A    between atoms: _460  and  _461
REMARK  191  A    between atoms: _463  and  _465
REMARK  192  A    between atoms: _465  and  _466
REMARK  193  A    between atoms: _468  and  _470
REMARK  194  A    between atoms: _470  and  _471
REMARK  195  A    between atoms: _470  and  _473
REMARK  196  A    between atoms: _473  and  _474
REMARK  197  A    between atoms: _480  and  _482
REMARK  198  A    between atoms: _482  and  _483
REMARK  199  A    between atoms: _482  and  _485
REMARK  200  A    between atoms: _485  and  _486
REMARK  201  A    between atoms: _489  and  _491
REMARK  202  A    between atoms: _491  and  _492
REMARK  203  A    between atoms: _491  and  _494
REMARK  204  A    between atoms: _497  and  _499
REMARK  205  A    between atoms: _499  and  _500
REMARK  206  A    between atoms: _499  and  _502
REMARK  207  A    between atoms: _502  and  _503
REMARK  208  A    between atoms: _507  and  _508
REMARK  209  A    between atoms: _513  and  _515
REMARK  210  A    between atoms: _515  and  _516
REMARK  211  A    between atoms: _515  and  _518
REMARK  212  A    between atoms: _518  and  _519
REMARK  213  A    between atoms: _523  and  _524
REMARK  214  A    between atoms: _529  and  _531
REMARK  215  A    between atoms: _531  and  _532
REMARK  216  A    between atoms: _531  and  _534
REMARK  217  A    between atoms: _537  and  _539
REMARK  218  A    between atoms: _539  and  _540
REMARK  219  A    between atoms: _539  and  _542
REMARK  220  A    between atoms: _542  and  _543
REMARK  221  A    between atoms: _548  and  _550
REMARK  222  A    between atoms: _550  and  _551
REMARK  223  A    between atoms: _550  and  _553
REMARK  224  A    between atoms: _556  and  _558
REMARK  225  A    between atoms: _558  and  _559
REMARK  226  A    between atoms: _558  and  _561
REMARK  227  A    between atoms: _561  and  _562
REMARK  228  A    between atoms: _565  and  _567
REMARK  229  A    between atoms: _567  and  _568
REMARK  230  A    between atoms: _570  and  _572
REMARK  231  A    between atoms: _572  and  _573
REMARK  232  A    between atoms: _572  and  _575
REMARK  233  A    between atoms: _575  and  _576
REMARK  234  A    between atoms: _576  and  _577
REMARK  235  A    between atoms: _577  and  _578
REMARK  236  A    between atoms: _587  and  _589
REMARK  237  A    between atoms: _589  and  _590
REMARK  238  A    between atoms: _589  and  _592
REMARK  239  A    between atoms: _592  and  _593
REMARK                            x       y       z     vdW  Elec       q    Type
REMARK                         _______ _______ _______ _____ _____    ______ ____
ROOT
ATOM      1  O   HOH     1      20.237  28.540  20.949  0.00  0.00    +0.000 OA
ENDROOT
TORSDOF 0
REMARK  Name = ../refined-set-2016/2aoc/2aoc_pocket.pdb
REMARK  239 active torsions:
REMARK  status: ('A' for Active; 'I' for Inactive)
REMARK    1  A    between atoms: _1  and  _3
REMARK    2  A    between atoms: _3  and  _4
REMARK    3  A    between atoms: _3  and  _6
REMARK    4  A    between atoms: _6  and  _7
REMARK    5  A    between atoms: _7  and  _8
REMARK    6  A    between atoms: _8  and  _9
REMARK    7  A    between atoms: _18  and  _20
REMARK    8  A    between atoms: _20  and  _21
REMARK    9  A    between atoms: _20  and  _23
REMARK   10  A    between atoms: _23  and  _24
REMARK   11  A    between atoms: _27  and  _29
REMARK   12  A    between atoms: _29  and  _30
REMARK   13  A    between atoms: _29  and  _32
REMARK   14  A    between atoms: _33  and  _34
REMARK   15  A    between atoms: _37  and  _39
REMARK   16  A    between atoms: _39  and  _40
REMARK   17  A    between atoms: _39  and  _42
REMARK   18  A    between atoms: _42  and  _43
REMARK   19  A    between atoms: _46  and  _48
REMARK   20  A    between atoms: _48  and  _49
REMARK   21  A    between atoms: _48  and  _51
REMARK   22  A    between atoms: _51  and  _52
REMARK   23  A    between atoms: _55  and  _57
REMARK   24  A    between atoms: _57  and  _58
REMARK   25  A    between atoms: _57  and  _60
REMARK   26  A    between atoms: _60  and  _61
REMARK   27  A    between atoms: _64  and  _66
REMARK   28  A    between atoms: _66  and  _67
REMARK   29  A    between atoms: _66  and  _69
REMARK   30  A    between atoms: _69  and  _70
REMARK   31  A    between atoms: _73  and  _75
REMARK   32  A    between atoms: _75  and  _76
REMARK   33  A    between atoms: _78  and  _80
REMARK   34  A    between atoms: _80  and  _81
REMARK   35  A    between atoms: _84  and  _86
REMARK   36  A    between atoms: _86  and  _87
REMARK   37  A    between atoms: _86  and  _89
REMARK   38  A    between atoms: _89  and  _90
REMARK   39  A    between atoms: _93  and  _95
REMARK   40  A    between atoms: _95  and  _96
REMARK   41  A    between atoms: _95  and  _98
REMARK   42  A    between atoms: _98  and  _99
REMARK   43  A    between atoms: _102  and  _104
REMARK   44  A    between atoms: _104  and  _105
REMARK   45  A    between atoms: _104  and  _107
REMARK   46  A    between atoms: _107  and  _108
REMARK   47  A    between atoms: _111  and  _113
REMARK   48  A    between atoms: _113  and  _114
REMARK   49  A    between atoms: _113  and  _116
REMARK   50  A    between atoms: _119  and  _121
REMARK   51  A    between atoms: _121  and  _122
REMARK   52  A    between atoms: _121  and  _124
REMARK   53  A    between atoms: _124  and  _125
REMARK   54  A    between atoms: _125  and  _126
REMARK   55  A    between atoms: _126  and  _127
REMARK   56  A    between atoms: _127  and  _128
REMARK   57  A    between atoms: _132  and  _134
REMARK   58  A    between atoms: _134  and  _135
REMARK   59  A    between atoms: _134  and  _137
REMARK   60  A    between atoms: _137  and  _138
REMARK   61  A    between atoms: _138  and  _139
REMARK   62  A    between atoms: _141  and  _143
REMARK   63  A    between atoms: _143  and  _144
REMARK   64  A    between atoms: _143  and  _146
REMARK   65  A    between atoms: _146  and  _147
REMARK   66  A    between atoms: _150  and  _152
REMARK   67  A    between atoms: _152  and  _153
REMARK   68  A    between atoms: _155  and  _157
REMARK   69  A    between atoms: _157  and  _158
REMARK   70  A    between atoms: _160  and  _162
REMARK   71  A    between atoms: _162  and  _163
REMARK   72  A    between atoms: _162  and  _165
REMARK   73  A    between atoms: _165  and  _166
REMARK   74  A    between atoms: _169  and  _171
REMARK   75  A    between atoms: _171  and  _172
REMARK   76  A    between atoms: _174  and  _176
REMARK   77  A    between atoms: _176  and  _177
REMARK   78  A    between atoms: _179  and  _181
REMARK   79  A    between atoms: _181  and  _182
REMARK   80  A    between atoms: _181  and  _184
REMARK   81  A    between atoms: _184  and  _185
REMARK   82  A    between atoms: _191  and  _193
REMARK   83  A    between atoms: _193  and  _194
REMARK   84  A    between atoms: _193  and  _196
REMARK   85  A    between atoms: _196  and  _197
REMARK   86  A    between atoms: _200  and  _202
REMARK   87  A    between atoms: _202  and  _203
REMARK   88  A    between atoms: _202  and  _205
REMARK   89  A    between atoms: _208  and  _210
REMARK   90  A    between atoms: _210  and  _211
REMARK   91  A    between atoms: _210  and  _213
REMARK   92  A    between atoms: _213  and  _214
REMARK   93  A    between atoms: _218  and  _219
REMARK   94  A    between atoms: _224  and  _226
REMARK   95  A    between atoms: _226  and  _227
REMARK   96  A    between atoms: _226  and  _229
REMARK   97  A    between atoms: _229  and  _230
REMARK   98  A    between atoms: _234  and  _235
REMARK   99  A    between atoms: _240  and  _242
REMARK  100  A    between atoms: _242  and  _243
REMARK  101  A    between atoms: _242  and  _245
REMARK  102  A    between atoms: _248  and  _250
REMARK  103  A    between atoms: _250  and  _251
REMARK  104  A    between atoms: _250  and  _253
REMARK  105  A    between atoms: _253  and  _254
REMARK  106  A    between atoms: _259  and  _261
REMARK  107  A    between atoms: _261  and  _262
REMARK  108  A    between atoms: _261  and  _264
REMARK  109  A    between atoms: _267  and  _269
REMARK  110  A    between atoms: _269  and  _270
REMARK  111  A    between atoms: _269  and  _272
REMARK  112  A    between atoms: _272  and  _273
REMARK  113  A    between atoms: _276  and  _278
REMARK  114  A    between atoms: _278  and  _279
REMARK  115  A    between atoms: _281  and  _283
REMARK  116  A    between atoms: _283  and  _284
REMARK  117  A    between atoms: _283  and  _286
REMARK  118  A    between atoms: _287  and  _288
REMARK  119  A    between atoms: _288  and  _289
REMARK  120  A    between atoms: _298  and  _300
REMARK  121  A    between atoms: _300  and  _301
REMARK  122  A    between atoms: _300  and  _303
REMARK  123  A    between atoms: _303  and  _304
REMARK  124  A    between atoms: _309  and  _311
REMARK  125  A    between atoms: _311  and  _312
REMARK  126  A    between atoms: _311  and  _314
REMARK  127  A    between atoms: _314  and  _315
REMARK  128  A    between atoms: _315  and  _316
REMARK  129  A    between atoms: _316  and  _317
REMARK  130  A    between atoms: _326  and  _328
REMARK  131  A    between atoms: _328  and  _329
REMARK  132  A    between atoms: _328  and  _331
REMARK  133  A    between atoms: _331  and  _332
REMARK  134  A    between atoms: _335  and  _337
REMARK  135  A    between atoms: _337  and  _338
REMARK  136  A    between atoms: _337  and  _340
REMARK  137  A    between atoms: _340  and  _341
REMARK  138  A    between atoms: _344  and  _346
REMARK  139  A    between atoms: _346  and  _347
REMARK  140  A    between atoms: _346  and  _349
REMARK  141  A    between atoms: _349  and  _350
REMARK  142  A    between atoms: _353  and  _355
REMARK  143  A    between atoms: _355  and  _356
REMARK  144  A    between atoms: _355  and  _358
REMARK  145  A    between atoms: _358  and  _359
REMARK  146  A    between atoms: _362  and  _364
REMARK  147  A    between atoms: _364  and  _365
REMARK  148  A    between atoms: _367  and  _369
REMARK  149  A    between atoms: _369  and  _370
REMARK  150  A    between atoms: _373  and  _375
REMARK  151  A    between atoms: _375  and  _376
REMARK  152  A    between atoms: _375  and  _378
REMARK  153  A    between atoms: _378  and  _379
REMARK  154  A    between atoms: _382  and  _384
REMARK  155  A    between atoms: _384  and  _385
REMARK  156  A    between atoms: _384  and  _387
REMARK  157  A    between atoms: _387  and  _388
REMARK  158  A    between atoms: _391  and  _393
REMARK  159  A    between atoms: _393  and  _394
REMARK  160  A    between atoms: _393  and  _396
REMARK  161  A    between atoms: _396  and  _397
REMARK  162  A    between atoms: _400  and  _402
REMARK  163  A    between atoms: _402  and  _403
REMARK  164  A    between atoms: _402  and  _405
REMARK  165  A    between atoms: _408  and  _410
REMARK  166  A    between atoms: _410  and  _411
REMARK  167  A    between atoms: _410  and  _413
REMARK  168  A    between atoms: _413  and  _414
REMARK  169  A    between atoms: _414  and  _415
REMARK  170  A    between atoms: _415  and  _416
REMARK  171  A    between atoms: _416  and  _417
REMARK  172  A    between atoms: _421  and  _423
REMARK  173  A    between atoms: _423  and  _424
REMARK  174  A    between atoms: _423  and  _426
REMARK  175  A    between atoms: _426  and  _427
REMARK  176  A    between atoms: _427  and  _428
REMARK  177  A    between atoms: _430  and  _432
REMARK  178  A    between atoms: _432  and  _433
REMARK  179  A    between atoms: _432  and  _435
REMARK  180  A    between atoms: _435  and  _436
REMARK  181  A    between atoms: _439  and  _441
REMARK  182  A    between atoms: _441  and  _442
REMARK  183  A    between atoms: _444  and  _446
REMARK  184  A    between atoms: _446  and  _447
REMARK  185  A    between atoms: _449  and  _451
REMARK  186  A    between atoms: _451  and  _452
REMARK  187  A    between atoms: _451  and  _454
REMARK  188  A    between atoms: _454  and  _455
REMARK  189  A    between atoms: _458  and  _460
REMARK  190  A    between atoms: _460  and  _461
REMARK  191  A    between atoms: _463  and  _465
REMARK  192  A    between atoms: _465  and  _466
REMARK  193  A    between atoms: _468  and  _470
REMARK  194  A    between atoms: _470  and  _471
REMARK  195  A    between atoms: _470  and  _473
REMARK  196  A    between atoms: _473  and  _474
REMARK  197  A    between atoms: _480  and  _482
REMARK  198  A    between atoms: _482  and  _483
REMARK  199  A    between atoms: _482  and  _485
REMARK  200  A    between atoms: _485  and  _486
REMARK  201  A    between atoms: _489  and  _491
REMARK  202  A    between atoms: _491  and  _492
REMARK  203  A    between atoms: _491  and  _494
REMARK  204  A    between atoms: _497  and  _499
REMARK  205  A    between atoms: _499  and  _500
REMARK  206  A    between atoms: _499  and  _502
REMARK  207  A    between atoms: _502  and  _503
REMARK  208  A    between atoms: _507  and  _508
REMARK  209  A    between atoms: _513  and  _515
REMARK  210  A    between atoms: _515  and  _516
REMARK  211  A    between atoms: _515  and  _518
REMARK  212  A    between atoms: _518  and  _519
REMARK  213  A    between atoms: _523  and  _524
REMARK  214  A    between atoms: _529  and  _531
REMARK  215  A    between atoms: _531  and  _532
REMARK  216  A    between atoms: _531  and  _534
REMARK  217  A    between atoms: _537  and  _539
REMARK  218  A    between atoms: _539  and  _540
REMARK  219  A    between atoms: _539  and  _542
REMARK  220  A    between atoms: _542  and  _543
REMARK  221  A    between atoms: _548  and  _550
REMARK  222  A    between atoms: _550  and  _551
REMARK  223  A    between atoms: _550  and  _553
REMARK  224  A    between atoms: _556  and  _558
REMARK  225  A    between atoms: _558  and  _559
REMARK  226  A    between atoms: _558  and  _561
REMARK  227  A    between atoms: _561  and  _562
REMARK  228  A    between atoms: _565  and  _567
REMARK  229  A    between atoms: _567  and  _568
REMARK  230  A    between atoms: _570  and  _572
REMARK  231  A    between atoms: _572  and  _573
REMARK  232  A    between atoms: _572  and  _575
REMARK  233  A    between atoms: _575  and  _576
REMARK  234  A    between atoms: _576  and  _577
REMARK  235  A    between atoms: _577  and  _578
REMARK  236  A    between atoms: _587  and  _589
REMARK  237  A    between atoms: _589  and  _590
REMARK  238  A    between atoms: _589  and  _592
REMARK  239  A    between atoms: _592  and  _593
REMARK                            x       y       z     vdW  Elec       q    Type
REMARK                         _______ _______ _______ _____ _____    ______ ____
ROOT
ATOM      1  O   HOH     1      30.517  26.978  11.251  0.00  0.00    +0.000 OA
ENDROOT
TORSDOF 0
REMARK  Name = ../refined-set-2016/2aoc/2aoc_pocket.pdb
REMARK  239 active torsions:
REMARK  status: ('A' for Active; 'I' for Inactive)
REMARK    1  A    between atoms: _1  and  _3
REMARK    2  A    between atoms: _3  and  _4
REMARK    3  A    between atoms: _3  and  _6
REMARK    4  A    between atoms: _6  and  _7
REMARK    5  A    between atoms: _7  and  _8
REMARK    6  A    between atoms: _8  and  _9
REMARK    7  A    between atoms: _18  and  _20
REMARK    8  A    between atoms: _20  and  _21
REMARK    9  A    between atoms: _20  and  _23
REMARK   10  A    between atoms: _23  and  _24
REMARK   11  A    between atoms: _27  and  _29
REMARK   12  A    between atoms: _29  and  _30
REMARK   13  A    between atoms: _29  and  _32
REMARK   14  A    between atoms: _33  and  _34
REMARK   15  A    between atoms: _37  and  _39
REMARK   16  A    between atoms: _39  and  _40
REMARK   17  A    between atoms: _39  and  _42
REMARK   18  A    between atoms: _42  and  _43
REMARK   19  A    between atoms: _46  and  _48
REMARK   20  A    between atoms: _48  and  _49
REMARK   21  A    between atoms: _48  and  _51
REMARK   22  A    between atoms: _51  and  _52
REMARK   23  A    between atoms: _55  and  _57
REMARK   24  A    between atoms: _57  and  _58
REMARK   25  A    between atoms: _57  and  _60
REMARK   26  A    between atoms: _60  and  _61
REMARK   27  A    between atoms: _64  and  _66
REMARK   28  A    between atoms: _66  and  _67
REMARK   29  A    between atoms: _66  and  _69
REMARK   30  A    between atoms: _69  and  _70
REMARK   31  A    between atoms: _73  and  _75
REMARK   32  A    between atoms: _75  and  _76
REMARK   33  A    between atoms: _78  and  _80
REMARK   34  A    between atoms: _80  and  _81
REMARK   35  A    between atoms: _84  and  _86
REMARK   36  A    between atoms: _86  and  _87
REMARK   37  A    between atoms: _86  and  _89
REMARK   38  A    between atoms: _89  and  _90
REMARK   39  A    between atoms: _93  and  _95
REMARK   40  A    between atoms: _95  and  _96
REMARK   41  A    between atoms: _95  and  _98
REMARK   42  A    between atoms: _98  and  _99
REMARK   43  A    between atoms: _102  and  _104
REMARK   44  A    between atoms: _104  and  _105
REMARK   45  A    between atoms: _104  and  _107
REMARK   46  A    between atoms: _107  and  _108
REMARK   47  A    between atoms: _111  and  _113
REMARK   48  A    between atoms: _113  and  _114
REMARK   49  A    between atoms: _113  and  _116
REMARK   50  A    between atoms: _119  and  _121
REMARK   51  A    between atoms: _121  and  _122
REMARK   52  A    between atoms: _121  and  _124
REMARK   53  A    between atoms: _124  and  _125
REMARK   54  A    between atoms: _125  and  _126
REMARK   55  A    between atoms: _126  and  _127
REMARK   56  A    between atoms: _127  and  _128
REMARK   57  A    between atoms: _132  and  _134
REMARK   58  A    between atoms: _134  and  _135
REMARK   59  A    between atoms: _134  and  _137
REMARK   60  A    between atoms: _137  and  _138
REMARK   61  A    between atoms: _138  and  _139
REMARK   62  A    between atoms: _141  and  _143
REMARK   63  A    between atoms: _143  and  _144
REMARK   64  A    between atoms: _143  and  _146
REMARK   65  A    between atoms: _146  and  _147
REMARK   66  A    between atoms: _150  and  _152
REMARK   67  A    between atoms: _152  and  _153
REMARK   68  A    between atoms: _155  and  _157
REMARK   69  A    between atoms: _157  and  _158
REMARK   70  A    between atoms: _160  and  _162
REMARK   71  A    between atoms: _162  and  _163
REMARK   72  A    between atoms: _162  and  _165
REMARK   73  A    between atoms: _165  and  _166
REMARK   74  A    between atoms: _169  and  _171
REMARK   75  A    between atoms: _171  and  _172
REMARK   76  A    between atoms: _174  and  _176
REMARK   77  A    between atoms: _176  and  _177
REMARK   78  A    between atoms: _179  and  _181
REMARK   79  A    between atoms: _181  and  _182
REMARK   80  A    between atoms: _181  and  _184
REMARK   81  A    between atoms: _184  and  _185
REMARK   82  A    between atoms: _191  and  _193
REMARK   83  A    between atoms: _193  and  _194
REMARK   84  A    between atoms: _193  and  _196
REMARK   85  A    between atoms: _196  and  _197
REMARK   86  A    between atoms: _200  and  _202
REMARK   87  A    between atoms: _202  and  _203
REMARK   88  A    between atoms: _202  and  _205
REMARK   89  A    between atoms: _208  and  _210
REMARK   90  A    between atoms: _210  and  _211
REMARK   91  A    between atoms: _210  and  _213
REMARK   92  A    between atoms: _213  and  _214
REMARK   93  A    between atoms: _218  and  _219
REMARK   94  A    between atoms: _224  and  _226
REMARK   95  A    between atoms: _226  and  _227
REMARK   96  A    between atoms: _226  and  _229
REMARK   97  A    between atoms: _229  and  _230
REMARK   98  A    between atoms: _234  and  _235
REMARK   99  A    between atoms: _240  and  _242
REMARK  100  A    between atoms: _242  and  _243
REMARK  101  A    between atoms: _242  and  _245
REMARK  102  A    between atoms: _248  and  _250
REMARK  103  A    between atoms: _250  and  _251
REMARK  104  A    between atoms: _250  and  _253
REMARK  105  A    between atoms: _253  and  _254
REMARK  106  A    between atoms: _259  and  _261
REMARK  107  A    between atoms: _261  and  _262
REMARK  108  A    between atoms: _261  and  _264
REMARK  109  A    between atoms: _267  and  _269
REMARK  110  A    between atoms: _269  and  _270
REMARK  111  A    between atoms: _269  and  _272
REMARK  112  A    between atoms: _272  and  _273
REMARK  113  A    between atoms: _276  and  _278
REMARK  114  A    between atoms: _278  and  _279
REMARK  115  A    between atoms: _281  and  _283
REMARK  116  A    between atoms: _283  and  _284
REMARK  117  A    between atoms: _283  and  _286
REMARK  118  A    between atoms: _287  and  _288
REMARK  119  A    between atoms: _288  and  _289
REMARK  120  A    between atoms: _298  and  _300
REMARK  121  A    between atoms: _300  and  _301
REMARK  122  A    between atoms: _300  and  _303
REMARK  123  A    between atoms: _303  and  _304
REMARK  124  A    between atoms: _309  and  _311
REMARK  125  A    between atoms: _311  and  _312
REMARK  126  A    between atoms: _311  and  _314
REMARK  127  A    between atoms: _314  and  _315
REMARK  128  A    between atoms: _315  and  _316
REMARK  129  A    between atoms: _316  and  _317
REMARK  130  A    between atoms: _326  and  _328
REMARK  131  A    between atoms: _328  and  _329
REMARK  132  A    between atoms: _328  and  _331
REMARK  133  A    between atoms: _331  and  _332
REMARK  134  A    between atoms: _335  and  _337
REMARK  135  A    between atoms: _337  and  _338
REMARK  136  A    between atoms: _337  and  _340
REMARK  137  A    between atoms: _340  and  _341
REMARK  138  A    between atoms: _344  and  _346
REMARK  139  A    between atoms: _346  and  _347
REMARK  140  A    between atoms: _346  and  _349
REMARK  141  A    between atoms: _349  and  _350
REMARK  142  A    between atoms: _353  and  _355
REMARK  143  A    between atoms: _355  and  _356
REMARK  144  A    between atoms: _355  and  _358
REMARK  145  A    between atoms: _358  and  _359
REMARK  146  A    between atoms: _362  and  _364
REMARK  147  A    between atoms: _364  and  _365
REMARK  148  A    between atoms: _367  and  _369
REMARK  149  A    between atoms: _369  and  _370
REMARK  150  A    between atoms: _373  and  _375
REMARK  151  A    between atoms: _375  and  _376
REMARK  152  A    between atoms: _375  and  _378
REMARK  153  A    between atoms: _378  and  _379
REMARK  154  A    between atoms: _382  and  _384
REMARK  155  A    between atoms: _384  and  _385
REMARK  156  A    between atoms: _384  and  _387
REMARK  157  A    between atoms: _387  and  _388
REMARK  158  A    between atoms: _391  and  _393
REMARK  159  A    between atoms: _393  and  _394
REMARK  160  A    between atoms: _393  and  _396
REMARK  161  A    between atoms: _396  and  _397
REMARK  162  A    between atoms: _400  and  _402
REMARK  163  A    between atoms: _402  and  _403
REMARK  164  A    between atoms: _402  and  _405
REMARK  165  A    between atoms: _408  and  _410
REMARK  166  A    between atoms: _410  and  _411
REMARK  167  A    between atoms: _410  and  _413
REMARK  168  A    between atoms: _413  and  _414
REMARK  169  A    between atoms: _414  and  _415
REMARK  170  A    between atoms: _415  and  _416
REMARK  171  A    between atoms: _416  and  _417
REMARK  172  A    between atoms: _421  and  _423
REMARK  173  A    between atoms: _423  and  _424
REMARK  174  A    between atoms: _423  and  _426
REMARK  175  A    between atoms: _426  and  _427
REMARK  176  A    between atoms: _427  and  _428
REMARK  177  A    between atoms: _430  and  _432
REMARK  178  A    between atoms: _432  and  _433
REMARK  179  A    between atoms: _432  and  _435
REMARK  180  A    between atoms: _435  and  _436
REMARK  181  A    between atoms: _439  and  _441
REMARK  182  A    between atoms: _441  and  _442
REMARK  183  A    between atoms: _444  and  _446
REMARK  184  A    between atoms: _446  and  _447
REMARK  185  A    between atoms: _449  and  _451
REMARK  186  A    between atoms: _451  and  _452
REMARK  187  A    between atoms: _451  and  _454
REMARK  188  A    between atoms: _454  and  _455
REMARK  189  A    between atoms: _458  and  _460
REMARK  190  A    between atoms: _460  and  _461
REMARK  191  A    between atoms: _463  and  _465
REMARK  192  A    between atoms: _465  and  _466
REMARK  193  A    between atoms: _468  and  _470
REMARK  194  A    between atoms: _470  and  _471
REMARK  195  A    between atoms: _470  and  _473
REMARK  196  A    between atoms: _473  and  _474
REMARK  197  A    between atoms: _480  and  _482
REMARK  198  A    between atoms: _482  and  _483
REMARK  199  A    between atoms: _482  and  _485
REMARK  200  A    between atoms: _485  and  _486
REMARK  201  A    between atoms: _489  and  _491
REMARK  202  A    between atoms: _491  and  _492
REMARK  203  A    between atoms: _491  and  _494
REMARK  204  A    between atoms: _497  and  _499
REMARK  205  A    between atoms: _499  and  _500
REMARK  206  A    between atoms: _499  and  _502
REMARK  207  A    between atoms: _502  and  _503
REMARK  208  A    between atoms: _507  and  _508
REMARK  209  A    between atoms: _513  and  _515
REMARK  210  A    between atoms: _515  and  _516
REMARK  211  A    between atoms: _515  and  _518
REMARK  212  A    between atoms: _518  and  _519
REMARK  213  A    between atoms: _523  and  _524
REMARK  214  A    between atoms: _529  and  _531
REMARK  215  A    between atoms: _531  and  _532
REMARK  216  A    between atoms: _531  and  _534
REMARK  217  A    between atoms: _537  and  _539
REMARK  218  A    between atoms: _539  and  _540
REMARK  219  A    between atoms: _539  and  _542
REMARK  220  A    between atoms: _542  and  _543
REMARK  221  A    between atoms: _548  and  _550
REMARK  222  A    between atoms: _550  and  _551
REMARK  223  A    between atoms: _550  and  _553
REMARK  224  A    between atoms: _556  and  _558
REMARK  225  A    between atoms: _558  and  _559
REMARK  226  A    between atoms: _558  and  _561
REMARK  227  A    between atoms: _561  and  _562
REMARK  228  A    between atoms: _565  and  _567
REMARK  229  A    between atoms: _567  and  _568
REMARK  230  A    between atoms: _570  and  _572
REMARK  231  A    between atoms: _572  and  _573
REMARK  232  A    between atoms: _572  and  _575
REMARK  233  A    between atoms: _575  and  _576
REMARK  234  A    between atoms: _576  and  _577
REMARK  235  A    between atoms: _577  and  _578
REMARK  236  A    between atoms: _587  and  _589
REMARK  237  A    between atoms: _589  and  _590
REMARK  238  A    between atoms: _589  and  _592
REMARK  239  A    between atoms: _592  and  _593
REMARK                            x       y       z     vdW  Elec       q    Type
REMARK                         _______ _______ _______ _____ _____    ______ ____
ROOT
ATOM      1  O   HOH     1      18.421  30.636  21.580  0.00  0.00    +0.000 OA
ENDROOT
TORSDOF 0
REMARK  Name = ../refined-set-2016/2aoc/2aoc_pocket.pdb
REMARK  239 active torsions:
REMARK  status: ('A' for Active; 'I' for Inactive)
REMARK    1  A    between atoms: _1  and  _3
REMARK    2  A    between atoms: _3  and  _4
REMARK    3  A    between atoms: _3  and  _6
REMARK    4  A    between atoms: _6  and  _7
REMARK    5  A    between atoms: _7  and  _8
REMARK    6  A    between atoms: _8  and  _9
REMARK    7  A    between atoms: _18  and  _20
REMARK    8  A    between atoms: _20  and  _21
REMARK    9  A    between atoms: _20  and  _23
REMARK   10  A    between atoms: _23  and  _24
REMARK   11  A    between atoms: _27  and  _29
REMARK   12  A    between atoms: _29  and  _30
REMARK   13  A    between atoms: _29  and  _32
REMARK   14  A    between atoms: _33  and  _34
REMARK   15  A    between atoms: _37  and  _39
REMARK   16  A    between atoms: _39  and  _40
REMARK   17  A    between atoms: _39  and  _42
REMARK   18  A    between atoms: _42  and  _43
REMARK   19  A    between atoms: _46  and  _48
REMARK   20  A    between atoms: _48  and  _49
REMARK   21  A    between atoms: _48  and  _51
REMARK   22  A    between atoms: _51  and  _52
REMARK   23  A    between atoms: _55  and  _57
REMARK   24  A    between atoms: _57  and  _58
REMARK   25  A    between atoms: _57  and  _60
REMARK   26  A    between atoms: _60  and  _61
REMARK   27  A    between atoms: _64  and  _66
REMARK   28  A    between atoms: _66  and  _67
REMARK   29  A    between atoms: _66  and  _69
REMARK   30  A    between atoms: _69  and  _70
REMARK   31  A    between atoms: _73  and  _75
REMARK   32  A    between atoms: _75  and  _76
REMARK   33  A    between atoms: _78  and  _80
REMARK   34  A    between atoms: _80  and  _81
REMARK   35  A    between atoms: _84  and  _86
REMARK   36  A    between atoms: _86  and  _87
REMARK   37  A    between atoms: _86  and  _89
REMARK   38  A    between atoms: _89  and  _90
REMARK   39  A    between atoms: _93  and  _95
REMARK   40  A    between atoms: _95  and  _96
REMARK   41  A    between atoms: _95  and  _98
REMARK   42  A    between atoms: _98  and  _99
REMARK   43  A    between atoms: _102  and  _104
REMARK   44  A    between atoms: _104  and  _105
REMARK   45  A    between atoms: _104  and  _107
REMARK   46  A    between atoms: _107  and  _108
REMARK   47  A    between atoms: _111  and  _113
REMARK   48  A    between atoms: _113  and  _114
REMARK   49  A    between atoms: _113  and  _116
REMARK   50  A    between atoms: _119  and  _121
REMARK   51  A    between atoms: _121  and  _122
REMARK   52  A    between atoms: _121  and  _124
REMARK   53  A    between atoms: _124  and  _125
REMARK   54  A    between atoms: _125  and  _126
REMARK   55  A    between atoms: _126  and  _127
REMARK   56  A    between atoms: _127  and  _128
REMARK   57  A    between atoms: _132  and  _134
REMARK   58  A    between atoms: _134  and  _135
REMARK   59  A    between atoms: _134  and  _137
REMARK   60  A    between atoms: _137  and  _138
REMARK   61  A    between atoms: _138  and  _139
REMARK   62  A    between atoms: _141  and  _143
REMARK   63  A    between atoms: _143  and  _144
REMARK   64  A    between atoms: _143  and  _146
REMARK   65  A    between atoms: _146  and  _147
REMARK   66  A    between atoms: _150  and  _152
REMARK   67  A    between atoms: _152  and  _153
REMARK   68  A    between atoms: _155  and  _157
REMARK   69  A    between atoms: _157  and  _158
REMARK   70  A    between atoms: _160  and  _162
REMARK   71  A    between atoms: _162  and  _163
REMARK   72  A    between atoms: _162  and  _165
REMARK   73  A    between atoms: _165  and  _166
REMARK   74  A    between atoms: _169  and  _171
REMARK   75  A    between atoms: _171  and  _172
REMARK   76  A    between atoms: _174  and  _176
REMARK   77  A    between atoms: _176  and  _177
REMARK   78  A    between atoms: _179  and  _181
REMARK   79  A    between atoms: _181  and  _182
REMARK   80  A    between atoms: _181  and  _184
REMARK   81  A    between atoms: _184  and  _185
REMARK   82  A    between atoms: _191  and  _193
REMARK   83  A    between atoms: _193  and  _194
REMARK   84  A    between atoms: _193  and  _196
REMARK   85  A    between atoms: _196  and  _197
REMARK   86  A    between atoms: _200  and  _202
REMARK   87  A    between atoms: _202  and  _203
REMARK   88  A    between atoms: _202  and  _205
REMARK   89  A    between atoms: _208  and  _210
REMARK   90  A    between atoms: _210  and  _211
REMARK   91  A    between atoms: _210  and  _213
REMARK   92  A    between atoms: _213  and  _214
REMARK   93  A    between atoms: _218  and  _219
REMARK   94  A    between atoms: _224  and  _226
REMARK   95  A    between atoms: _226  and  _227
REMARK   96  A    between atoms: _226  and  _229
REMARK   97  A    between atoms: _229  and  _230
REMARK   98  A    between atoms: _234  and  _235
REMARK   99  A    between atoms: _240  and  _242
REMARK  100  A    between atoms: _242  and  _243
REMARK  101  A    between atoms: _242  and  _245
REMARK  102  A    between atoms: _248  and  _250
REMARK  103  A    between atoms: _250  and  _251
REMARK  104  A    between atoms: _250  and  _253
REMARK  105  A    between atoms: _253  and  _254
REMARK  106  A    between atoms: _259  and  _261
REMARK  107  A    between atoms: _261  and  _262
REMARK  108  A    between atoms: _261  and  _264
REMARK  109  A    between atoms: _267  and  _269
REMARK  110  A    between atoms: _269  and  _270
REMARK  111  A    between atoms: _269  and  _272
REMARK  112  A    between atoms: _272  and  _273
REMARK  113  A    between atoms: _276  and  _278
REMARK  114  A    between atoms: _278  and  _279
REMARK  115  A    between atoms: _281  and  _283
REMARK  116  A    between atoms: _283  and  _284
REMARK  117  A    between atoms: _283  and  _286
REMARK  118  A    between atoms: _287  and  _288
REMARK  119  A    between atoms: _288  and  _289
REMARK  120  A    between atoms: _298  and  _300
REMARK  121  A    between atoms: _300  and  _301
REMARK  122  A    between atoms: _300  and  _303
REMARK  123  A    between atoms: _303  and  _304
REMARK  124  A    between atoms: _309  and  _311
REMARK  125  A    between atoms: _311  and  _312
REMARK  126  A    between atoms: _311  and  _314
REMARK  127  A    between atoms: _314  and  _315
REMARK  128  A    between atoms: _315  and  _316
REMARK  129  A    between atoms: _316  and  _317
REMARK  130  A    between atoms: _326  and  _328
REMARK  131  A    between atoms: _328  and  _329
REMARK  132  A    between atoms: _328  and  _331
REMARK  133  A    between atoms: _331  and  _332
REMARK  134  A    between atoms: _335  and  _337
REMARK  135  A    between atoms: _337  and  _338
REMARK  136  A    between atoms: _337  and  _340
REMARK  137  A    between atoms: _340  and  _341
REMARK  138  A    between atoms: _344  and  _346
REMARK  139  A    between atoms: _346  and  _347
REMARK  140  A    between atoms: _346  and  _349
REMARK  141  A    between atoms: _349  and  _350
REMARK  142  A    between atoms: _353  and  _355
REMARK  143  A    between atoms: _355  and  _356
REMARK  144  A    between atoms: _355  and  _358
REMARK  145  A    between atoms: _358  and  _359
REMARK  146  A    between atoms: _362  and  _364
REMARK  147  A    between atoms: _364  and  _365
REMARK  148  A    between atoms: _367  and  _369
REMARK  149  A    between atoms: _369  and  _370
REMARK  150  A    between atoms: _373  and  _375
REMARK  151  A    between atoms: _375  and  _376
REMARK  152  A    between atoms: _375  and  _378
REMARK  153  A    between atoms: _378  and  _379
REMARK  154  A    between atoms: _382  and  _384
REMARK  155  A    between atoms: _384  and  _385
REMARK  156  A    between atoms: _384  and  _387
REMARK  157  A    between atoms: _387  and  _388
REMARK  158  A    between atoms: _391  and  _393
REMARK  159  A    between atoms: _393  and  _394
REMARK  160  A    between atoms: _393  and  _396
REMARK  161  A    between atoms: _396  and  _397
REMARK  162  A    between atoms: _400  and  _402
REMARK  163  A    between atoms: _402  and  _403
REMARK  164  A    between atoms: _402  and  _405
REMARK  165  A    between atoms: _408  and  _410
REMARK  166  A    between atoms: _410  and  _411
REMARK  167  A    between atoms: _410  and  _413
REMARK  168  A    between atoms: _413  and  _414
REMARK  169  A    between atoms: _414  and  _415
REMARK  170  A    between atoms: _415  and  _416
REMARK  171  A    between atoms: _416  and  _417
REMARK  172  A    between atoms: _421  and  _423
REMARK  173  A    between atoms: _423  and  _424
REMARK  174  A    between atoms: _423  and  _426
REMARK  175  A    between atoms: _426  and  _427
REMARK  176  A    between atoms: _427  and  _428
REMARK  177  A    between atoms: _430  and  _432
REMARK  178  A    between atoms: _432  and  _433
REMARK  179  A    between atoms: _432  and  _435
REMARK  180  A    between atoms: _435  and  _436
REMARK  181  A    between atoms: _439  and  _441
REMARK  182  A    between atoms: _441  and  _442
REMARK  183  A    between atoms: _444  and  _446
REMARK  184  A    between atoms: _446  and  _447
REMARK  185  A    between atoms: _449  and  _451
REMARK  186  A    between atoms: _451  and  _452
REMARK  187  A    between atoms: _451  and  _454
REMARK  188  A    between atoms: _454  and  _455
REMARK  189  A    between atoms: _458  and  _460
REMARK  190  A    between atoms: _460  and  _461
REMARK  191  A    between atoms: _463  and  _465
REMARK  192  A    between atoms: _465  and  _466
REMARK  193  A    between atoms: _468  and  _470
REMARK  194  A    between atoms: _470  and  _471
REMARK  195  A    between atoms: _470  and  _473
REMARK  196  A    between atoms: _473  and  _474
REMARK  197  A    between atoms: _480  and  _482
REMARK  198  A    between atoms: _482  and  _483
REMARK  199  A    between atoms: _482  and  _485
REMARK  200  A    between atoms: _485  and  _486
REMARK  201  A    between atoms: _489  and  _491
REMARK  202  A    between atoms: _491  and  _492
REMARK  203  A    between atoms: _491  and  _494
REMARK  204  A    between atoms: _497  and  _499
REMARK  205  A    between atoms: _499  and  _500
REMARK  206  A    between atoms: _499  and  _502
REMARK  207  A    between atoms: _502  and  _503
REMARK  208  A    between atoms: _507  and  _508
REMARK  209  A    between atoms: _513  and  _515
REMARK  210  A    between atoms: _515  and  _516
REMARK  211  A    between atoms: _515  and  _518
REMARK  212  A    between atoms: _518  and  _519
REMARK  213  A    between atoms: _523  and  _524
REMARK  214  A    between atoms: _529  and  _531
REMARK  215  A    between atoms: _531  and  _532
REMARK  216  A    between atoms: _531  and  _534
REMARK  217  A    between atoms: _537  and  _539
REMARK  218  A    between atoms: _539  and  _540
REMARK  219  A    between atoms: _539  and  _542
REMARK  220  A    between atoms: _542  and  _543
REMARK  221  A    between atoms: _548  and  _550
REMARK  222  A    between atoms: _550  and  _551
REMARK  223  A    between atoms: _550  and  _553
REMARK  224  A    between atoms: _556  and  _558
REMARK  225  A    between atoms: _558  and  _559
REMARK  226  A    between atoms: _558  and  _561
REMARK  227  A    between atoms: _561  and  _562
REMARK  228  A    between atoms: _565  and  _567
REMARK  229  A    between atoms: _567  and  _568
REMARK  230  A    between atoms: _570  and  _572
REMARK  231  A    between atoms: _572  and  _573
REMARK  232  A    between atoms: _572  and  _575
REMARK  233  A    between atoms: _575  and  _576
REMARK  234  A    between atoms: _576  and  _577
REMARK  235  A    between atoms: _577  and  _578
REMARK  236  A    between atoms: _587  and  _589
REMARK  237  A    between atoms: _589  and  _590
REMARK  238  A    between atoms: _589  and  _592
REMARK  239  A    between atoms: _592  and  _593
REMARK                            x       y       z     vdW  Elec       q    Type
REMARK                         _______ _______ _______ _____ _____    ______ ____
ROOT
ATOM      1  O   HOH     1      20.796  33.444  10.568  0.00  0.00    +0.000 OA
ENDROOT
TORSDOF 0
REMARK  Name = ../refined-set-2016/2aoc/2aoc_pocket.pdb
REMARK  239 active torsions:
REMARK  status: ('A' for Active; 'I' for Inactive)
REMARK    1  A    between atoms: _1  and  _3
REMARK    2  A    between atoms: _3  and  _4
REMARK    3  A    between atoms: _3  and  _6
REMARK    4  A    between atoms: _6  and  _7
REMARK    5  A    between atoms: _7  and  _8
REMARK    6  A    between atoms: _8  and  _9
REMARK    7  A    between atoms: _18  and  _20
REMARK    8  A    between atoms: _20  and  _21
REMARK    9  A    between atoms: _20  and  _23
REMARK   10  A    between atoms: _23  and  _24
REMARK   11  A    between atoms: _27  and  _29
REMARK   12  A    between atoms: _29  and  _30
REMARK   13  A    between atoms: _29  and  _32
REMARK   14  A    between atoms: _33  and  _34
REMARK   15  A    between atoms: _37  and  _39
REMARK   16  A    between atoms: _39  and  _40
REMARK   17  A    between atoms: _39  and  _42
REMARK   18  A    between atoms: _42  and  _43
REMARK   19  A    between atoms: _46  and  _48
REMARK   20  A    between atoms: _48  and  _49
REMARK   21  A    between atoms: _48  and  _51
REMARK   22  A    between atoms: _51  and  _52
REMARK   23  A    between atoms: _55  and  _57
REMARK   24  A    between atoms: _57  and  _58
REMARK   25  A    between atoms: _57  and  _60
REMARK   26  A    between atoms: _60  and  _61
REMARK   27  A    between atoms: _64  and  _66
REMARK   28  A    between atoms: _66  and  _67
REMARK   29  A    between atoms: _66  and  _69
REMARK   30  A    between atoms: _69  and  _70
REMARK   31  A    between atoms: _73  and  _75
REMARK   32  A    between atoms: _75  and  _76
REMARK   33  A    between atoms: _78  and  _80
REMARK   34  A    between atoms: _80  and  _81
REMARK   35  A    between atoms: _84  and  _86
REMARK   36  A    between atoms: _86  and  _87
REMARK   37  A    between atoms: _86  and  _89
REMARK   38  A    between atoms: _89  and  _90
REMARK   39  A    between atoms: _93  and  _95
REMARK   40  A    between atoms: _95  and  _96
REMARK   41  A    between atoms: _95  and  _98
REMARK   42  A    between atoms: _98  and  _99
REMARK   43  A    between atoms: _102  and  _104
REMARK   44  A    between atoms: _104  and  _105
REMARK   45  A    between atoms: _104  and  _107
REMARK   46  A    between atoms: _107  and  _108
REMARK   47  A    between atoms: _111  and  _113
REMARK   48  A    between atoms: _113  and  _114
REMARK   49  A    between atoms: _113  and  _116
REMARK   50  A    between atoms: _119  and  _121
REMARK   51  A    between atoms: _121  and  _122
REMARK   52  A    between atoms: _121  and  _124
REMARK   53  A    between atoms: _124  and  _125
REMARK   54  A    between atoms: _125  and  _126
REMARK   55  A    between atoms: _126  and  _127
REMARK   56  A    between atoms: _127  and  _128
REMARK   57  A    between atoms: _132  and  _134
REMARK   58  A    between atoms: _134  and  _135
REMARK   59  A    between atoms: _134  and  _137
REMARK   60  A    between atoms: _137  and  _138
REMARK   61  A    between atoms: _138  and  _139
REMARK   62  A    between atoms: _141  and  _143
REMARK   63  A    between atoms: _143  and  _144
REMARK   64  A    between atoms: _143  and  _146
REMARK   65  A    between atoms: _146  and  _147
REMARK   66  A    between atoms: _150  and  _152
REMARK   67  A    between atoms: _152  and  _153
REMARK   68  A    between atoms: _155  and  _157
REMARK   69  A    between atoms: _157  and  _158
REMARK   70  A    between atoms: _160  and  _162
REMARK   71  A    between atoms: _162  and  _163
REMARK   72  A    between atoms: _162  and  _165
REMARK   73  A    between atoms: _165  and  _166
REMARK   74  A    between atoms: _169  and  _171
REMARK   75  A    between atoms: _171  and  _172
REMARK   76  A    between atoms: _174  and  _176
REMARK   77  A    between atoms: _176  and  _177
REMARK   78  A    between atoms: _179  and  _181
REMARK   79  A    between atoms: _181  and  _182
REMARK   80  A    between atoms: _181  and  _184
REMARK   81  A    between atoms: _184  and  _185
REMARK   82  A    between atoms: _191  and  _193
REMARK   83  A    between atoms: _193  and  _194
REMARK   84  A    between atoms: _193  and  _196
REMARK   85  A    between atoms: _196  and  _197
REMARK   86  A    between atoms: _200  and  _202
REMARK   87  A    between atoms: _202  and  _203
REMARK   88  A    between atoms: _202  and  _205
REMARK   89  A    between atoms: _208  and  _210
REMARK   90  A    between atoms: _210  and  _211
REMARK   91  A    between atoms: _210  and  _213
REMARK   92  A    between atoms: _213  and  _214
REMARK   93  A    between atoms: _218  and  _219
REMARK   94  A    between atoms: _224  and  _226
REMARK   95  A    between atoms: _226  and  _227
REMARK   96  A    between atoms: _226  and  _229
REMARK   97  A    between atoms: _229  and  _230
REMARK   98  A    between atoms: _234  and  _235
REMARK   99  A    between atoms: _240  and  _242
REMARK  100  A    between atoms: _242  and  _243
REMARK  101  A    between atoms: _242  and  _245
REMARK  102  A    between atoms: _248  and  _250
REMARK  103  A    between atoms: _250  and  _251
REMARK  104  A    between atoms: _250  and  _253
REMARK  105  A    between atoms: _253  and  _254
REMARK  106  A    between atoms: _259  and  _261
REMARK  107  A    between atoms: _261  and  _262
REMARK  108  A    between atoms: _261  and  _264
REMARK  109  A    between atoms: _267  and  _269
REMARK  110  A    between atoms: _269  and  _270
REMARK  111  A    between atoms: _269  and  _272
REMARK  112  A    between atoms: _272  and  _273
REMARK  113  A    between atoms: _276  and  _278
REMARK  114  A    between atoms: _278  and  _279
REMARK  115  A    between atoms: _281  and  _283
REMARK  116  A    between atoms: _283  and  _284
REMARK  117  A    between atoms: _283  and  _286
REMARK  118  A    between atoms: _287  and  _288
REMARK  119  A    between atoms: _288  and  _289
REMARK  120  A    between atoms: _298  and  _300
REMARK  121  A    between atoms: _300  and  _301
REMARK  122  A    between atoms: _300  and  _303
REMARK  123  A    between atoms: _303  and  _304
REMARK  124  A    between atoms: _309  and  _311
REMARK  125  A    between atoms: _311  and  _312
REMARK  126  A    between atoms: _311  and  _314
REMARK  127  A    between atoms: _314  and  _315
REMARK  128  A    between atoms: _315  and  _316
REMARK  129  A    between atoms: _316  and  _317
REMARK  130  A    between atoms: _326  and  _328
REMARK  131  A    between atoms: _328  and  _329
REMARK  132  A    between atoms: _328  and  _331
REMARK  133  A    between atoms: _331  and  _332
REMARK  134  A    between atoms: _335  and  _337
REMARK  135  A    between atoms: _337  and  _338
REMARK  136  A    between atoms: _337  and  _340
REMARK  137  A    between atoms: _340  and  _341
REMARK  138  A    between atoms: _344  and  _346
REMARK  139  A    between atoms: _346  and  _347
REMARK  140  A    between atoms: _346  and  _349
REMARK  141  A    between atoms: _349  and  _350
REMARK  142  A    between atoms: _353  and  _355
REMARK  143  A    between atoms: _355  and  _356
REMARK  144  A    between atoms: _355  and  _358
REMARK  145  A    between atoms: _358  and  _359
REMARK  146  A    between atoms: _362  and  _364
REMARK  147  A    between atoms: _364  and  _365
REMARK  148  A    between atoms: _367  and  _369
REMARK  149  A    between atoms: _369  and  _370
REMARK  150  A    between atoms: _373  and  _375
REMARK  151  A    between atoms: _375  and  _376
REMARK  152  A    between atoms: _375  and  _378
REMARK  153  A    between atoms: _378  and  _379
REMARK  154  A    between atoms: _382  and  _384
REMARK  155  A    between atoms: _384  and  _385
REMARK  156  A    between atoms: _384  and  _387
REMARK  157  A    between atoms: _387  and  _388
REMARK  158  A    between atoms: _391  and  _393
REMARK  159  A    between atoms: _393  and  _394
REMARK  160  A    between atoms: _393  and  _396
REMARK  161  A    between atoms: _396  and  _397
REMARK  162  A    between atoms: _400  and  _402
REMARK  163  A    between atoms: _402  and  _403
REMARK  164  A    between atoms: _402  and  _405
REMARK  165  A    between atoms: _408  and  _410
REMARK  166  A    between atoms: _410  and  _411
REMARK  167  A    between atoms: _410  and  _413
REMARK  168  A    between atoms: _413  and  _414
REMARK  169  A    between atoms: _414  and  _415
REMARK  170  A    between atoms: _415  and  _416
REMARK  171  A    between atoms: _416  and  _417
REMARK  172  A    between atoms: _421  and  _423
REMARK  173  A    between atoms: _423  and  _424
REMARK  174  A    between atoms: _423  and  _426
REMARK  175  A    between atoms: _426  and  _427
REMARK  176  A    between atoms: _427  and  _428
REMARK  177  A    between atoms: _430  and  _432
REMARK  178  A    between atoms: _432  and  _433
REMARK  179  A    between atoms: _432  and  _435
REMARK  180  A    between atoms: _435  and  _436
REMARK  181  A    between atoms: _439  and  _441
REMARK  182  A    between atoms: _441  and  _442
REMARK  183  A    between atoms: _444  and  _446
REMARK  184  A    between atoms: _446  and  _447
REMARK  185  A    between atoms: _449  and  _451
REMARK  186  A    between atoms: _451  and  _452
REMARK  187  A    between atoms: _451  and  _454
REMARK  188  A    between atoms: _454  and  _455
REMARK  189  A    between atoms: _458  and  _460
REMARK  190  A    between atoms: _460  and  _461
REMARK  191  A    between atoms: _463  and  _465
REMARK  192  A    between atoms: _465  and  _466
REMARK  193  A    between atoms: _468  and  _470
REMARK  194  A    between atoms: _470  and  _471
REMARK  195  A    between atoms: _470  and  _473
REMARK  196  A    between atoms: _473  and  _474
REMARK  197  A    between atoms: _480  and  _482
REMARK  198  A    between atoms: _482  and  _483
REMARK  199  A    between atoms: _482  and  _485
REMARK  200  A    between atoms: _485  and  _486
REMARK  201  A    between atoms: _489  and  _491
REMARK  202  A    between atoms: _491  and  _492
REMARK  203  A    between atoms: _491  and  _494
REMARK  204  A    between atoms: _497  and  _499
REMARK  205  A    between atoms: _499  and  _500
REMARK  206  A    between atoms: _499  and  _502
REMARK  207  A    between atoms: _502  and  _503
REMARK  208  A    between atoms: _507  and  _508
REMARK  209  A    between atoms: _513  and  _515
REMARK  210  A    between atoms: _515  and  _516
REMARK  211  A    between atoms: _515  and  _518
REMARK  212  A    between atoms: _518  and  _519
REMARK  213  A    between atoms: _523  and  _524
REMARK  214  A    between atoms: _529  and  _531
REMARK  215  A    between atoms: _531  and  _532
REMARK  216  A    between atoms: _531  and  _534
REMARK  217  A    between atoms: _537  and  _539
REMARK  218  A    between atoms: _539  and  _540
REMARK  219  A    between atoms: _539  and  _542
REMARK  220  A    between atoms: _542  and  _543
REMARK  221  A    between atoms: _548  and  _550
REMARK  222  A    between atoms: _550  and  _551
REMARK  223  A    between atoms: _550  and  _553
REMARK  224  A    between atoms: _556  and  _558
REMARK  225  A    between atoms: _558  and  _559
REMARK  226  A    between atoms: _558  and  _561
REMARK  227  A    between atoms: _561  and  _562
REMARK  228  A    between atoms: _565  and  _567
REMARK  229  A    between atoms: _567  and  _568
REMARK  230  A    between atoms: _570  and  _572
REMARK  231  A    between atoms: _572  and  _573
REMARK  232  A    between atoms: _572  and  _575
REMARK  233  A    between atoms: _575  and  _576
REMARK  234  A    between atoms: _576  and  _577
REMARK  235  A    between atoms: _577  and  _578
REMARK  236  A    between atoms: _587  and  _589
REMARK  237  A    between atoms: _589  and  _590
REMARK  238  A    between atoms: _589  and  _592
REMARK  239  A    between atoms: _592  and  _593
REMARK                            x       y       z     vdW  Elec       q    Type
REMARK                         _______ _______ _______ _____ _____    ______ ____
ROOT
ATOM      1  O   HOH     1      25.479  30.846  17.129  0.00  0.00    +0.000 OA
ENDROOT
TORSDOF 0
REMARK  Name = ../refined-set-2016/2aoc/2aoc_pocket.pdb
REMARK  239 active torsions:
REMARK  status: ('A' for Active; 'I' for Inactive)
REMARK    1  A    between atoms: _1  and  _3
REMARK    2  A    between atoms: _3  and  _4
REMARK    3  A    between atoms: _3  and  _6
REMARK    4  A    between atoms: _6  and  _7
REMARK    5  A    between atoms: _7  and  _8
REMARK    6  A    between atoms: _8  and  _9
REMARK    7  A    between atoms: _18  and  _20
REMARK    8  A    between atoms: _20  and  _21
REMARK    9  A    between atoms: _20  and  _23
REMARK   10  A    between atoms: _23  and  _24
REMARK   11  A    between atoms: _27  and  _29
REMARK   12  A    between atoms: _29  and  _30
REMARK   13  A    between atoms: _29  and  _32
REMARK   14  A    between atoms: _33  and  _34
REMARK   15  A    between atoms: _37  and  _39
REMARK   16  A    between atoms: _39  and  _40
REMARK   17  A    between atoms: _39  and  _42
REMARK   18  A    between atoms: _42  and  _43
REMARK   19  A    between atoms: _46  and  _48
REMARK   20  A    between atoms: _48  and  _49
REMARK   21  A    between atoms: _48  and  _51
REMARK   22  A    between atoms: _51  and  _52
REMARK   23  A    between atoms: _55  and  _57
REMARK   24  A    between atoms: _57  and  _58
REMARK   25  A    between atoms: _57  and  _60
REMARK   26  A    between atoms: _60  and  _61
REMARK   27  A    between atoms: _64  and  _66
REMARK   28  A    between atoms: _66  and  _67
REMARK   29  A    between atoms: _66  and  _69
REMARK   30  A    between atoms: _69  and  _70
REMARK   31  A    between atoms: _73  and  _75
REMARK   32  A    between atoms: _75  and  _76
REMARK   33  A    between atoms: _78  and  _80
REMARK   34  A    between atoms: _80  and  _81
REMARK   35  A    between atoms: _84  and  _86
REMARK   36  A    between atoms: _86  and  _87
REMARK   37  A    between atoms: _86  and  _89
REMARK   38  A    between atoms: _89  and  _90
REMARK   39  A    between atoms: _93  and  _95
REMARK   40  A    between atoms: _95  and  _96
REMARK   41  A    between atoms: _95  and  _98
REMARK   42  A    between atoms: _98  and  _99
REMARK   43  A    between atoms: _102  and  _104
REMARK   44  A    between atoms: _104  and  _105
REMARK   45  A    between atoms: _104  and  _107
REMARK   46  A    between atoms: _107  and  _108
REMARK   47  A    between atoms: _111  and  _113
REMARK   48  A    between atoms: _113  and  _114
REMARK   49  A    between atoms: _113  and  _116
REMARK   50  A    between atoms: _119  and  _121
REMARK   51  A    between atoms: _121  and  _122
REMARK   52  A    between atoms: _121  and  _124
REMARK   53  A    between atoms: _124  and  _125
REMARK   54  A    between atoms: _125  and  _126
REMARK   55  A    between atoms: _126  and  _127
REMARK   56  A    between atoms: _127  and  _128
REMARK   57  A    between atoms: _132  and  _134
REMARK   58  A    between atoms: _134  and  _135
REMARK   59  A    between atoms: _134  and  _137
REMARK   60  A    between atoms: _137  and  _138
REMARK   61  A    between atoms: _138  and  _139
REMARK   62  A    between atoms: _141  and  _143
REMARK   63  A    between atoms: _143  and  _144
REMARK   64  A    between atoms: _143  and  _146
REMARK   65  A    between atoms: _146  and  _147
REMARK   66  A    between atoms: _150  and  _152
REMARK   67  A    between atoms: _152  and  _153
REMARK   68  A    between atoms: _155  and  _157
REMARK   69  A    between atoms: _157  and  _158
REMARK   70  A    between atoms: _160  and  _162
REMARK   71  A    between atoms: _162  and  _163
REMARK   72  A    between atoms: _162  and  _165
REMARK   73  A    between atoms: _165  and  _166
REMARK   74  A    between atoms: _169  and  _171
REMARK   75  A    between atoms: _171  and  _172
REMARK   76  A    between atoms: _174  and  _176
REMARK   77  A    between atoms: _176  and  _177
REMARK   78  A    between atoms: _179  and  _181
REMARK   79  A    between atoms: _181  and  _182
REMARK   80  A    between atoms: _181  and  _184
REMARK   81  A    between atoms: _184  and  _185
REMARK   82  A    between atoms: _191  and  _193
REMARK   83  A    between atoms: _193  and  _194
REMARK   84  A    between atoms: _193  and  _196
REMARK   85  A    between atoms: _196  and  _197
REMARK   86  A    between atoms: _200  and  _202
REMARK   87  A    between atoms: _202  and  _203
REMARK   88  A    between atoms: _202  and  _205
REMARK   89  A    between atoms: _208  and  _210
REMARK   90  A    between atoms: _210  and  _211
REMARK   91  A    between atoms: _210  and  _213
REMARK   92  A    between atoms: _213  and  _214
REMARK   93  A    between atoms: _218  and  _219
REMARK   94  A    between atoms: _224  and  _226
REMARK   95  A    between atoms: _226  and  _227
REMARK   96  A    between atoms: _226  and  _229
REMARK   97  A    between atoms: _229  and  _230
REMARK   98  A    between atoms: _234  and  _235
REMARK   99  A    between atoms: _240  and  _242
REMARK  100  A    between atoms: _242  and  _243
REMARK  101  A    between atoms: _242  and  _245
REMARK  102  A    between atoms: _248  and  _250
REMARK  103  A    between atoms: _250  and  _251
REMARK  104  A    between atoms: _250  and  _253
REMARK  105  A    between atoms: _253  and  _254
REMARK  106  A    between atoms: _259  and  _261
REMARK  107  A    between atoms: _261  and  _262
REMARK  108  A    between atoms: _261  and  _264
REMARK  109  A    between atoms: _267  and  _269
REMARK  110  A    between atoms: _269  and  _270
REMARK  111  A    between atoms: _269  and  _272
REMARK  112  A    between atoms: _272  and  _273
REMARK  113  A    between atoms: _276  and  _278
REMARK  114  A    between atoms: _278  and  _279
REMARK  115  A    between atoms: _281  and  _283
REMARK  116  A    between atoms: _283  and  _284
REMARK  117  A    between atoms: _283  and  _286
REMARK  118  A    between atoms: _287  and  _288
REMARK  119  A    between atoms: _288  and  _289
REMARK  120  A    between atoms: _298  and  _300
REMARK  121  A    between atoms: _300  and  _301
REMARK  122  A    between atoms: _300  and  _303
REMARK  123  A    between atoms: _303  and  _304
REMARK  124  A    between atoms: _309  and  _311
REMARK  125  A    between atoms: _311  and  _312
REMARK  126  A    between atoms: _311  and  _314
REMARK  127  A    between atoms: _314  and  _315
REMARK  128  A    between atoms: _315  and  _316
REMARK  129  A    between atoms: _316  and  _317
REMARK  130  A    between atoms: _326  and  _328
REMARK  131  A    between atoms: _328  and  _329
REMARK  132  A    between atoms: _328  and  _331
REMARK  133  A    between atoms: _331  and  _332
REMARK  134  A    between atoms: _335  and  _337
REMARK  135  A    between atoms: _337  and  _338
REMARK  136  A    between atoms: _337  and  _340
REMARK  137  A    between atoms: _340  and  _341
REMARK  138  A    between atoms: _344  and  _346
REMARK  139  A    between atoms: _346  and  _347
REMARK  140  A    between atoms: _346  and  _349
REMARK  141  A    between atoms: _349  and  _350
REMARK  142  A    between atoms: _353  and  _355
REMARK  143  A    between atoms: _355  and  _356
REMARK  144  A    between atoms: _355  and  _358
REMARK  145  A    between atoms: _358  and  _359
REMARK  146  A    between atoms: _362  and  _364
REMARK  147  A    between atoms: _364  and  _365
REMARK  148  A    between atoms: _367  and  _369
REMARK  149  A    between atoms: _369  and  _370
REMARK  150  A    between atoms: _373  and  _375
REMARK  151  A    between atoms: _375  and  _376
REMARK  152  A    between atoms: _375  and  _378
REMARK  153  A    between atoms: _378  and  _379
REMARK  154  A    between atoms: _382  and  _384
REMARK  155  A    between atoms: _384  and  _385
REMARK  156  A    between atoms: _384  and  _387
REMARK  157  A    between atoms: _387  and  _388
REMARK  158  A    between atoms: _391  and  _393
REMARK  159  A    between atoms: _393  and  _394
REMARK  160  A    between atoms: _393  and  _396
REMARK  161  A    between atoms: _396  and  _397
REMARK  162  A    between atoms: _400  and  _402
REMARK  163  A    between atoms: _402  and  _403
REMARK  164  A    between atoms: _402  and  _405
REMARK  165  A    between atoms: _408  and  _410
REMARK  166  A    between atoms: _410  and  _411
REMARK  167  A    between atoms: _410  and  _413
REMARK  168  A    between atoms: _413  and  _414
REMARK  169  A    between atoms: _414  and  _415
REMARK  170  A    between atoms: _415  and  _416
REMARK  171  A    between atoms: _416  and  _417
REMARK  172  A    between atoms: _421  and  _423
REMARK  173  A    between atoms: _423  and  _424
REMARK  174  A    between atoms: _423  and  _426
REMARK  175  A    between atoms: _426  and  _427
REMARK  176  A    between atoms: _427  and  _428
REMARK  177  A    between atoms: _430  and  _432
REMARK  178  A    between atoms: _432  and  _433
REMARK  179  A    between atoms: _432  and  _435
REMARK  180  A    between atoms: _435  and  _436
REMARK  181  A    between atoms: _439  and  _441
REMARK  182  A    between atoms: _441  and  _442
REMARK  183  A    between atoms: _444  and  _446
REMARK  184  A    between atoms: _446  and  _447
REMARK  185  A    between atoms: _449  and  _451
REMARK  186  A    between atoms: _451  and  _452
REMARK  187  A    between atoms: _451  and  _454
REMARK  188  A    between atoms: _454  and  _455
REMARK  189  A    between atoms: _458  and  _460
REMARK  190  A    between atoms: _460  and  _461
REMARK  191  A    between atoms: _463  and  _465
REMARK  192  A    between atoms: _465  and  _466
REMARK  193  A    between atoms: _468  and  _470
REMARK  194  A    between atoms: _470  and  _471
REMARK  195  A    between atoms: _470  and  _473
REMARK  196  A    between atoms: _473  and  _474
REMARK  197  A    between atoms: _480  and  _482
REMARK  198  A    between atoms: _482  and  _483
REMARK  199  A    between atoms: _482  and  _485
REMARK  200  A    between atoms: _485  and  _486
REMARK  201  A    between atoms: _489  and  _491
REMARK  202  A    between atoms: _491  and  _492
REMARK  203  A    between atoms: _491  and  _494
REMARK  204  A    between atoms: _497  and  _499
REMARK  205  A    between atoms: _499  and  _500
REMARK  206  A    between atoms: _499  and  _502
REMARK  207  A    between atoms: _502  and  _503
REMARK  208  A    between atoms: _507  and  _508
REMARK  209  A    between atoms: _513  and  _515
REMARK  210  A    between atoms: _515  and  _516
REMARK  211  A    between atoms: _515  and  _518
REMARK  212  A    between atoms: _518  and  _519
REMARK  213  A    between atoms: _523  and  _524
REMARK  214  A    between atoms: _529  and  _531
REMARK  215  A    between atoms: _531  and  _532
REMARK  216  A    between atoms: _531  and  _534
REMARK  217  A    between atoms: _537  and  _539
REMARK  218  A    between atoms: _539  and  _540
REMARK  219  A    between atoms: _539  and  _542
REMARK  220  A    between atoms: _542  and  _543
REMARK  221  A    between atoms: _548  and  _550
REMARK  222  A    between atoms: _550  and  _551
REMARK  223  A    between atoms: _550  and  _553
REMARK  224  A    between atoms: _556  and  _558
REMARK  225  A    between atoms: _558  and  _559
REMARK  226  A    between atoms: _558  and  _561
REMARK  227  A    between atoms: _561  and  _562
REMARK  228  A    between atoms: _565  and  _567
REMARK  229  A    between atoms: _567  and  _568
REMARK  230  A    between atoms: _570  and  _572
REMARK  231  A    between atoms: _572  and  _573
REMARK  232  A    between atoms: _572  and  _575
REMARK  233  A    between atoms: _575  and  _576
REMARK  234  A    between atoms: _576  and  _577
REMARK  235  A    between atoms: _577  and  _578
REMARK  236  A    between atoms: _587  and  _589
REMARK  237  A    between atoms: _589  and  _590
REMARK  238  A    between atoms: _589  and  _592
REMARK  239  A    between atoms: _592  and  _593
REMARK                            x       y       z     vdW  Elec       q    Type
REMARK                         _______ _______ _______ _____ _____    ______ ____
ROOT
ATOM      1  O   HOH     1      22.050  15.255  19.443  0.00  0.00    +0.000 OA
ENDROOT
TORSDOF 0
REMARK  Name = ../refined-set-2016/2aoc/2aoc_pocket.pdb
REMARK  239 active torsions:
REMARK  status: ('A' for Active; 'I' for Inactive)
REMARK    1  A    between atoms: _1  and  _3
REMARK    2  A    between atoms: _3  and  _4
REMARK    3  A    between atoms: _3  and  _6
REMARK    4  A    between atoms: _6  and  _7
REMARK    5  A    between atoms: _7  and  _8
REMARK    6  A    between atoms: _8  and  _9
REMARK    7  A    between atoms: _18  and  _20
REMARK    8  A    between atoms: _20  and  _21
REMARK    9  A    between atoms: _20  and  _23
REMARK   10  A    between atoms: _23  and  _24
REMARK   11  A    between atoms: _27  and  _29
REMARK   12  A    between atoms: _29  and  _30
REMARK   13  A    between atoms: _29  and  _32
REMARK   14  A    between atoms: _33  and  _34
REMARK   15  A    between atoms: _37  and  _39
REMARK   16  A    between atoms: _39  and  _40
REMARK   17  A    between atoms: _39  and  _42
REMARK   18  A    between atoms: _42  and  _43
REMARK   19  A    between atoms: _46  and  _48
REMARK   20  A    between atoms: _48  and  _49
REMARK   21  A    between atoms: _48  and  _51
REMARK   22  A    between atoms: _51  and  _52
REMARK   23  A    between atoms: _55  and  _57
REMARK   24  A    between atoms: _57  and  _58
REMARK   25  A    between atoms: _57  and  _60
REMARK   26  A    between atoms: _60  and  _61
REMARK   27  A    between atoms: _64  and  _66
REMARK   28  A    between atoms: _66  and  _67
REMARK   29  A    between atoms: _66  and  _69
REMARK   30  A    between atoms: _69  and  _70
REMARK   31  A    between atoms: _73  and  _75
REMARK   32  A    between atoms: _75  and  _76
REMARK   33  A    between atoms: _78  and  _80
REMARK   34  A    between atoms: _80  and  _81
REMARK   35  A    between atoms: _84  and  _86
REMARK   36  A    between atoms: _86  and  _87
REMARK   37  A    between atoms: _86  and  _89
REMARK   38  A    between atoms: _89  and  _90
REMARK   39  A    between atoms: _93  and  _95
REMARK   40  A    between atoms: _95  and  _96
REMARK   41  A    between atoms: _95  and  _98
REMARK   42  A    between atoms: _98  and  _99
REMARK   43  A    between atoms: _102  and  _104
REMARK   44  A    between atoms: _104  and  _105
REMARK   45  A    between atoms: _104  and  _107
REMARK   46  A    between atoms: _107  and  _108
REMARK   47  A    between atoms: _111  and  _113
REMARK   48  A    between atoms: _113  and  _114
REMARK   49  A    between atoms: _113  and  _116
REMARK   50  A    between atoms: _119  and  _121
REMARK   51  A    between atoms: _121  and  _122
REMARK   52  A    between atoms: _121  and  _124
REMARK   53  A    between atoms: _124  and  _125
REMARK   54  A    between atoms: _125  and  _126
REMARK   55  A    between atoms: _126  and  _127
REMARK   56  A    between atoms: _127  and  _128
REMARK   57  A    between atoms: _132  and  _134
REMARK   58  A    between atoms: _134  and  _135
REMARK   59  A    between atoms: _134  and  _137
REMARK   60  A    between atoms: _137  and  _138
REMARK   61  A    between atoms: _138  and  _139
REMARK   62  A    between atoms: _141  and  _143
REMARK   63  A    between atoms: _143  and  _144
REMARK   64  A    between atoms: _143  and  _146
REMARK   65  A    between atoms: _146  and  _147
REMARK   66  A    between atoms: _150  and  _152
REMARK   67  A    between atoms: _152  and  _153
REMARK   68  A    between atoms: _155  and  _157
REMARK   69  A    between atoms: _157  and  _158
REMARK   70  A    between atoms: _160  and  _162
REMARK   71  A    between atoms: _162  and  _163
REMARK   72  A    between atoms: _162  and  _165
REMARK   73  A    between atoms: _165  and  _166
REMARK   74  A    between atoms: _169  and  _171
REMARK   75  A    between atoms: _171  and  _172
REMARK   76  A    between atoms: _174  and  _176
REMARK   77  A    between atoms: _176  and  _177
REMARK   78  A    between atoms: _179  and  _181
REMARK   79  A    between atoms: _181  and  _182
REMARK   80  A    between atoms: _181  and  _184
REMARK   81  A    between atoms: _184  and  _185
REMARK   82  A    between atoms: _191  and  _193
REMARK   83  A    between atoms: _193  and  _194
REMARK   84  A    between atoms: _193  and  _196
REMARK   85  A    between atoms: _196  and  _197
REMARK   86  A    between atoms: _200  and  _202
REMARK   87  A    between atoms: _202  and  _203
REMARK   88  A    between atoms: _202  and  _205
REMARK   89  A    between atoms: _208  and  _210
REMARK   90  A    between atoms: _210  and  _211
REMARK   91  A    between atoms: _210  and  _213
REMARK   92  A    between atoms: _213  and  _214
REMARK   93  A    between atoms: _218  and  _219
REMARK   94  A    between atoms: _224  and  _226
REMARK   95  A    between atoms: _226  and  _227
REMARK   96  A    between atoms: _226  and  _229
REMARK   97  A    between atoms: _229  and  _230
REMARK   98  A    between atoms: _234  and  _235
REMARK   99  A    between atoms: _240  and  _242
REMARK  100  A    between atoms: _242  and  _243
REMARK  101  A    between atoms: _242  and  _245
REMARK  102  A    between atoms: _248  and  _250
REMARK  103  A    between atoms: _250  and  _251
REMARK  104  A    between atoms: _250  and  _253
REMARK  105  A    between atoms: _253  and  _254
REMARK  106  A    between atoms: _259  and  _261
REMARK  107  A    between atoms: _261  and  _262
REMARK  108  A    between atoms: _261  and  _264
REMARK  109  A    between atoms: _267  and  _269
REMARK  110  A    between atoms: _269  and  _270
REMARK  111  A    between atoms: _269  and  _272
REMARK  112  A    between atoms: _272  and  _273
REMARK  113  A    between atoms: _276  and  _278
REMARK  114  A    between atoms: _278  and  _279
REMARK  115  A    between atoms: _281  and  _283
REMARK  116  A    between atoms: _283  and  _284
REMARK  117  A    between atoms: _283  and  _286
REMARK  118  A    between atoms: _287  and  _288
REMARK  119  A    between atoms: _288  and  _289
REMARK  120  A    between atoms: _298  and  _300
REMARK  121  A    between atoms: _300  and  _301
REMARK  122  A    between atoms: _300  and  _303
REMARK  123  A    between atoms: _303  and  _304
REMARK  124  A    between atoms: _309  and  _311
REMARK  125  A    between atoms: _311  and  _312
REMARK  126  A    between atoms: _311  and  _314
REMARK  127  A    between atoms: _314  and  _315
REMARK  128  A    between atoms: _315  and  _316
REMARK  129  A    between atoms: _316  and  _317
REMARK  130  A    between atoms: _326  and  _328
REMARK  131  A    between atoms: _328  and  _329
REMARK  132  A    between atoms: _328  and  _331
REMARK  133  A    between atoms: _331  and  _332
REMARK  134  A    between atoms: _335  and  _337
REMARK  135  A    between atoms: _337  and  _338
REMARK  136  A    between atoms: _337  and  _340
REMARK  137  A    between atoms: _340  and  _341
REMARK  138  A    between atoms: _344  and  _346
REMARK  139  A    between atoms: _346  and  _347
REMARK  140  A    between atoms: _346  and  _349
REMARK  141  A    between atoms: _349  and  _350
REMARK  142  A    between atoms: _353  and  _355
REMARK  143  A    between atoms: _355  and  _356
REMARK  144  A    between atoms: _355  and  _358
REMARK  145  A    between atoms: _358  and  _359
REMARK  146  A    between atoms: _362  and  _364
REMARK  147  A    between atoms: _364  and  _365
REMARK  148  A    between atoms: _367  and  _369
REMARK  149  A    between atoms: _369  and  _370
REMARK  150  A    between atoms: _373  and  _375
REMARK  151  A    between atoms: _375  and  _376
REMARK  152  A    between atoms: _375  and  _378
REMARK  153  A    between atoms: _378  and  _379
REMARK  154  A    between atoms: _382  and  _384
REMARK  155  A    between atoms: _384  and  _385
REMARK  156  A    between atoms: _384  and  _387
REMARK  157  A    between atoms: _387  and  _388
REMARK  158  A    between atoms: _391  and  _393
REMARK  159  A    between atoms: _393  and  _394
REMARK  160  A    between atoms: _393  and  _396
REMARK  161  A    between atoms: _396  and  _397
REMARK  162  A    between atoms: _400  and  _402
REMARK  163  A    between atoms: _402  and  _403
REMARK  164  A    between atoms: _402  and  _405
REMARK  165  A    between atoms: _408  and  _410
REMARK  166  A    between atoms: _410  and  _411
REMARK  167  A    between atoms: _410  and  _413
REMARK  168  A    between atoms: _413  and  _414
REMARK  169  A    between atoms: _414  and  _415
REMARK  170  A    between atoms: _415  and  _416
REMARK  171  A    between atoms: _416  and  _417
REMARK  172  A    between atoms: _421  and  _423
REMARK  173  A    between atoms: _423  and  _424
REMARK  174  A    between atoms: _423  and  _426
REMARK  175  A    between atoms: _426  and  _427
REMARK  176  A    between atoms: _427  and  _428
REMARK  177  A    between atoms: _430  and  _432
REMARK  178  A    between atoms: _432  and  _433
REMARK  179  A    between atoms: _432  and  _435
REMARK  180  A    between atoms: _435  and  _436
REMARK  181  A    between atoms: _439  and  _441
REMARK  182  A    between atoms: _441  and  _442
REMARK  183  A    between atoms: _444  and  _446
REMARK  184  A    between atoms: _446  and  _447
REMARK  185  A    between atoms: _449  and  _451
REMARK  186  A    between atoms: _451  and  _452
REMARK  187  A    between atoms: _451  and  _454
REMARK  188  A    between atoms: _454  and  _455
REMARK  189  A    between atoms: _458  and  _460
REMARK  190  A    between atoms: _460  and  _461
REMARK  191  A    between atoms: _463  and  _465
REMARK  192  A    between atoms: _465  and  _466
REMARK  193  A    between atoms: _468  and  _470
REMARK  194  A    between atoms: _470  and  _471
REMARK  195  A    between atoms: _470  and  _473
REMARK  196  A    between atoms: _473  and  _474
REMARK  197  A    between atoms: _480  and  _482
REMARK  198  A    between atoms: _482  and  _483
REMARK  199  A    between atoms: _482  and  _485
REMARK  200  A    between atoms: _485  and  _486
REMARK  201  A    between atoms: _489  and  _491
REMARK  202  A    between atoms: _491  and  _492
REMARK  203  A    between atoms: _491  and  _494
REMARK  204  A    between atoms: _497  and  _499
REMARK  205  A    between atoms: _499  and  _500
REMARK  206  A    between atoms: _499  and  _502
REMARK  207  A    between atoms: _502  and  _503
REMARK  208  A    between atoms: _507  and  _508
REMARK  209  A    between atoms: _513  and  _515
REMARK  210  A    between atoms: _515  and  _516
REMARK  211  A    between atoms: _515  and  _518
REMARK  212  A    between atoms: _518  and  _519
REMARK  213  A    between atoms: _523  and  _524
REMARK  214  A    between atoms: _529  and  _531
REMARK  215  A    between atoms: _531  and  _532
REMARK  216  A    between atoms: _531  and  _534
REMARK  217  A    between atoms: _537  and  _539
REMARK  218  A    between atoms: _539  and  _540
REMARK  219  A    between atoms: _539  and  _542
REMARK  220  A    between atoms: _542  and  _543
REMARK  221  A    between atoms: _548  and  _550
REMARK  222  A    between atoms: _550  and  _551
REMARK  223  A    between atoms: _550  and  _553
REMARK  224  A    between atoms: _556  and  _558
REMARK  225  A    between atoms: _558  and  _559
REMARK  226  A    between atoms: _558  and  _561
REMARK  227  A    between atoms: _561  and  _562
REMARK  228  A    between atoms: _565  and  _567
REMARK  229  A    between atoms: _567  and  _568
REMARK  230  A    between atoms: _570  and  _572
REMARK  231  A    between atoms: _572  and  _573
REMARK  232  A    between atoms: _572  and  _575
REMARK  233  A    between atoms: _575  and  _576
REMARK  234  A    between atoms: _576  and  _577
REMARK  235  A    between atoms: _577  and  _578
REMARK  236  A    between atoms: _587  and  _589
REMARK  237  A    between atoms: _589  and  _590
REMARK  238  A    between atoms: _589  and  _592
REMARK  239  A    between atoms: _592  and  _593
REMARK                            x       y       z     vdW  Elec       q    Type
REMARK                         _______ _______ _______ _____ _____    ______ ____
ROOT
ATOM      1  O   HOH     1       9.125  24.294   7.469  0.00  0.00    +0.000 OA
ENDROOT
TORSDOF 0
REMARK  Name = ../refined-set-2016/2aoc/2aoc_pocket.pdb
REMARK  239 active torsions:
REMARK  status: ('A' for Active; 'I' for Inactive)
REMARK    1  A    between atoms: _1  and  _3
REMARK    2  A    between atoms: _3  and  _4
REMARK    3  A    between atoms: _3  and  _6
REMARK    4  A    between atoms: _6  and  _7
REMARK    5  A    between atoms: _7  and  _8
REMARK    6  A    between atoms: _8  and  _9
REMARK    7  A    between atoms: _18  and  _20
REMARK    8  A    between atoms: _20  and  _21
REMARK    9  A    between atoms: _20  and  _23
REMARK   10  A    between atoms: _23  and  _24
REMARK   11  A    between atoms: _27  and  _29
REMARK   12  A    between atoms: _29  and  _30
REMARK   13  A    between atoms: _29  and  _32
REMARK   14  A    between atoms: _33  and  _34
REMARK   15  A    between atoms: _37  and  _39
REMARK   16  A    between atoms: _39  and  _40
REMARK   17  A    between atoms: _39  and  _42
REMARK   18  A    between atoms: _42  and  _43
REMARK   19  A    between atoms: _46  and  _48
REMARK   20  A    between atoms: _48  and  _49
REMARK   21  A    between atoms: _48  and  _51
REMARK   22  A    between atoms: _51  and  _52
REMARK   23  A    between atoms: _55  and  _57
REMARK   24  A    between atoms: _57  and  _58
REMARK   25  A    between atoms: _57  and  _60
REMARK   26  A    between atoms: _60  and  _61
REMARK   27  A    between atoms: _64  and  _66
REMARK   28  A    between atoms: _66  and  _67
REMARK   29  A    between atoms: _66  and  _69
REMARK   30  A    between atoms: _69  and  _70
REMARK   31  A    between atoms: _73  and  _75
REMARK   32  A    between atoms: _75  and  _76
REMARK   33  A    between atoms: _78  and  _80
REMARK   34  A    between atoms: _80  and  _81
REMARK   35  A    between atoms: _84  and  _86
REMARK   36  A    between atoms: _86  and  _87
REMARK   37  A    between atoms: _86  and  _89
REMARK   38  A    between atoms: _89  and  _90
REMARK   39  A    between atoms: _93  and  _95
REMARK   40  A    between atoms: _95  and  _96
REMARK   41  A    between atoms: _95  and  _98
REMARK   42  A    between atoms: _98  and  _99
REMARK   43  A    between atoms: _102  and  _104
REMARK   44  A    between atoms: _104  and  _105
REMARK   45  A    between atoms: _104  and  _107
REMARK   46  A    between atoms: _107  and  _108
REMARK   47  A    between atoms: _111  and  _113
REMARK   48  A    between atoms: _113  and  _114
REMARK   49  A    between atoms: _113  and  _116
REMARK   50  A    between atoms: _119  and  _121
REMARK   51  A    between atoms: _121  and  _122
REMARK   52  A    between atoms: _121  and  _124
REMARK   53  A    between atoms: _124  and  _125
REMARK   54  A    between atoms: _125  and  _126
REMARK   55  A    between atoms: _126  and  _127
REMARK   56  A    between atoms: _127  and  _128
REMARK   57  A    between atoms: _132  and  _134
REMARK   58  A    between atoms: _134  and  _135
REMARK   59  A    between atoms: _134  and  _137
REMARK   60  A    between atoms: _137  and  _138
REMARK   61  A    between atoms: _138  and  _139
REMARK   62  A    between atoms: _141  and  _143
REMARK   63  A    between atoms: _143  and  _144
REMARK   64  A    between atoms: _143  and  _146
REMARK   65  A    between atoms: _146  and  _147
REMARK   66  A    between atoms: _150  and  _152
REMARK   67  A    between atoms: _152  and  _153
REMARK   68  A    between atoms: _155  and  _157
REMARK   69  A    between atoms: _157  and  _158
REMARK   70  A    between atoms: _160  and  _162
REMARK   71  A    between atoms: _162  and  _163
REMARK   72  A    between atoms: _162  and  _165
REMARK   73  A    between atoms: _165  and  _166
REMARK   74  A    between atoms: _169  and  _171
REMARK   75  A    between atoms: _171  and  _172
REMARK   76  A    between atoms: _174  and  _176
REMARK   77  A    between atoms: _176  and  _177
REMARK   78  A    between atoms: _179  and  _181
REMARK   79  A    between atoms: _181  and  _182
REMARK   80  A    between atoms: _181  and  _184
REMARK   81  A    between atoms: _184  and  _185
REMARK   82  A    between atoms: _191  and  _193
REMARK   83  A    between atoms: _193  and  _194
REMARK   84  A    between atoms: _193  and  _196
REMARK   85  A    between atoms: _196  and  _197
REMARK   86  A    between atoms: _200  and  _202
REMARK   87  A    between atoms: _202  and  _203
REMARK   88  A    between atoms: _202  and  _205
REMARK   89  A    between atoms: _208  and  _210
REMARK   90  A    between atoms: _210  and  _211
REMARK   91  A    between atoms: _210  and  _213
REMARK   92  A    between atoms: _213  and  _214
REMARK   93  A    between atoms: _218  and  _219
REMARK   94  A    between atoms: _224  and  _226
REMARK   95  A    between atoms: _226  and  _227
REMARK   96  A    between atoms: _226  and  _229
REMARK   97  A    between atoms: _229  and  _230
REMARK   98  A    between atoms: _234  and  _235
REMARK   99  A    between atoms: _240  and  _242
REMARK  100  A    between atoms: _242  and  _243
REMARK  101  A    between atoms: _242  and  _245
REMARK  102  A    between atoms: _248  and  _250
REMARK  103  A    between atoms: _250  and  _251
REMARK  104  A    between atoms: _250  and  _253
REMARK  105  A    between atoms: _253  and  _254
REMARK  106  A    between atoms: _259  and  _261
REMARK  107  A    between atoms: _261  and  _262
REMARK  108  A    between atoms: _261  and  _264
REMARK  109  A    between atoms: _267  and  _269
REMARK  110  A    between atoms: _269  and  _270
REMARK  111  A    between atoms: _269  and  _272
REMARK  112  A    between atoms: _272  and  _273
REMARK  113  A    between atoms: _276  and  _278
REMARK  114  A    between atoms: _278  and  _279
REMARK  115  A    between atoms: _281  and  _283
REMARK  116  A    between atoms: _283  and  _284
REMARK  117  A    between atoms: _283  and  _286
REMARK  118  A    between atoms: _287  and  _288
REMARK  119  A    between atoms: _288  and  _289
REMARK  120  A    between atoms: _298  and  _300
REMARK  121  A    between atoms: _300  and  _301
REMARK  122  A    between atoms: _300  and  _303
REMARK  123  A    between atoms: _303  and  _304
REMARK  124  A    between atoms: _309  and  _311
REMARK  125  A    between atoms: _311  and  _312
REMARK  126  A    between atoms: _311  and  _314
REMARK  127  A    between atoms: _314  and  _315
REMARK  128  A    between atoms: _315  and  _316
REMARK  129  A    between atoms: _316  and  _317
REMARK  130  A    between atoms: _326  and  _328
REMARK  131  A    between atoms: _328  and  _329
REMARK  132  A    between atoms: _328  and  _331
REMARK  133  A    between atoms: _331  and  _332
REMARK  134  A    between atoms: _335  and  _337
REMARK  135  A    between atoms: _337  and  _338
REMARK  136  A    between atoms: _337  and  _340
REMARK  137  A    between atoms: _340  and  _341
REMARK  138  A    between atoms: _344  and  _346
REMARK  139  A    between atoms: _346  and  _347
REMARK  140  A    between atoms: _346  and  _349
REMARK  141  A    between atoms: _349  and  _350
REMARK  142  A    between atoms: _353  and  _355
REMARK  143  A    between atoms: _355  and  _356
REMARK  144  A    between atoms: _355  and  _358
REMARK  145  A    between atoms: _358  and  _359
REMARK  146  A    between atoms: _362  and  _364
REMARK  147  A    between atoms: _364  and  _365
REMARK  148  A    between atoms: _367  and  _369
REMARK  149  A    between atoms: _369  and  _370
REMARK  150  A    between atoms: _373  and  _375
REMARK  151  A    between atoms: _375  and  _376
REMARK  152  A    between atoms: _375  and  _378
REMARK  153  A    between atoms: _378  and  _379
REMARK  154  A    between atoms: _382  and  _384
REMARK  155  A    between atoms: _384  and  _385
REMARK  156  A    between atoms: _384  and  _387
REMARK  157  A    between atoms: _387  and  _388
REMARK  158  A    between atoms: _391  and  _393
REMARK  159  A    between atoms: _393  and  _394
REMARK  160  A    between atoms: _393  and  _396
REMARK  161  A    between atoms: _396  and  _397
REMARK  162  A    between atoms: _400  and  _402
REMARK  163  A    between atoms: _402  and  _403
REMARK  164  A    between atoms: _402  and  _405
REMARK  165  A    between atoms: _408  and  _410
REMARK  166  A    between atoms: _410  and  _411
REMARK  167  A    between atoms: _410  and  _413
REMARK  168  A    between atoms: _413  and  _414
REMARK  169  A    between atoms: _414  and  _415
REMARK  170  A    between atoms: _415  and  _416
REMARK  171  A    between atoms: _416  and  _417
REMARK  172  A    between atoms: _421  and  _423
REMARK  173  A    between atoms: _423  and  _424
REMARK  174  A    between atoms: _423  and  _426
REMARK  175  A    between atoms: _426  and  _427
REMARK  176  A    between atoms: _427  and  _428
REMARK  177  A    between atoms: _430  and  _432
REMARK  178  A    between atoms: _432  and  _433
REMARK  179  A    between atoms: _432  and  _435
REMARK  180  A    between atoms: _435  and  _436
REMARK  181  A    between atoms: _439  and  _441
REMARK  182  A    between atoms: _441  and  _442
REMARK  183  A    between atoms: _444  and  _446
REMARK  184  A    between atoms: _446  and  _447
REMARK  185  A    between atoms: _449  and  _451
REMARK  186  A    between atoms: _451  and  _452
REMARK  187  A    between atoms: _451  and  _454
REMARK  188  A    between atoms: _454  and  _455
REMARK  189  A    between atoms: _458  and  _460
REMARK  190  A    between atoms: _460  and  _461
REMARK  191  A    between atoms: _463  and  _465
REMARK  192  A    between atoms: _465  and  _466
REMARK  193  A    between atoms: _468  and  _470
REMARK  194  A    between atoms: _470  and  _471
REMARK  195  A    between atoms: _470  and  _473
REMARK  196  A    between atoms: _473  and  _474
REMARK  197  A    between atoms: _480  and  _482
REMARK  198  A    between atoms: _482  and  _483
REMARK  199  A    between atoms: _482  and  _485
REMARK  200  A    between atoms: _485  and  _486
REMARK  201  A    between atoms: _489  and  _491
REMARK  202  A    between atoms: _491  and  _492
REMARK  203  A    between atoms: _491  and  _494
REMARK  204  A    between atoms: _497  and  _499
REMARK  205  A    between atoms: _499  and  _500
REMARK  206  A    between atoms: _499  and  _502
REMARK  207  A    between atoms: _502  and  _503
REMARK  208  A    between atoms: _507  and  _508
REMARK  209  A    between atoms: _513  and  _515
REMARK  210  A    between atoms: _515  and  _516
REMARK  211  A    between atoms: _515  and  _518
REMARK  212  A    between atoms: _518  and  _519
REMARK  213  A    between atoms: _523  and  _524
REMARK  214  A    between atoms: _529  and  _531
REMARK  215  A    between atoms: _531  and  _532
REMARK  216  A    between atoms: _531  and  _534
REMARK  217  A    between atoms: _537  and  _539
REMARK  218  A    between atoms: _539  and  _540
REMARK  219  A    between atoms: _539  and  _542
REMARK  220  A    between atoms: _542  and  _543
REMARK  221  A    between atoms: _548  and  _550
REMARK  222  A    between atoms: _550  and  _551
REMARK  223  A    between atoms: _550  and  _553
REMARK  224  A    between atoms: _556  and  _558
REMARK  225  A    between atoms: _558  and  _559
REMARK  226  A    between atoms: _558  and  _561
REMARK  227  A    between atoms: _561  and  _562
REMARK  228  A    between atoms: _565  and  _567
REMARK  229  A    between atoms: _567  and  _568
REMARK  230  A    between atoms: _570  and  _572
REMARK  231  A    between atoms: _572  and  _573
REMARK  232  A    between atoms: _572  and  _575
REMARK  233  A    between atoms: _575  and  _576
REMARK  234  A    between atoms: _576  and  _577
REMARK  235  A    between atoms: _577  and  _578
REMARK  236  A    between atoms: _587  and  _589
REMARK  237  A    between atoms: _589  and  _590
REMARK  238  A    between atoms: _589  and  _592
REMARK  239  A    between atoms: _592  and  _593
REMARK                            x       y       z     vdW  Elec       q    Type
REMARK                         _______ _______ _______ _____ _____    ______ ____
ROOT
ATOM      1  O   HOH     1      21.206  35.418  17.507  0.00  0.00    +0.000 OA
ENDROOT
TORSDOF 0
REMARK  Name = ../refined-set-2016/2aoc/2aoc_pocket.pdb
REMARK  239 active torsions:
REMARK  status: ('A' for Active; 'I' for Inactive)
REMARK    1  A    between atoms: _1  and  _3
REMARK    2  A    between atoms: _3  and  _4
REMARK    3  A    between atoms: _3  and  _6
REMARK    4  A    between atoms: _6  and  _7
REMARK    5  A    between atoms: _7  and  _8
REMARK    6  A    between atoms: _8  and  _9
REMARK    7  A    between atoms: _18  and  _20
REMARK    8  A    between atoms: _20  and  _21
REMARK    9  A    between atoms: _20  and  _23
REMARK   10  A    between atoms: _23  and  _24
REMARK   11  A    between atoms: _27  and  _29
REMARK   12  A    between atoms: _29  and  _30
REMARK   13  A    between atoms: _29  and  _32
REMARK   14  A    between atoms: _33  and  _34
REMARK   15  A    between atoms: _37  and  _39
REMARK   16  A    between atoms: _39  and  _40
REMARK   17  A    between atoms: _39  and  _42
REMARK   18  A    between atoms: _42  and  _43
REMARK   19  A    between atoms: _46  and  _48
REMARK   20  A    between atoms: _48  and  _49
REMARK   21  A    between atoms: _48  and  _51
REMARK   22  A    between atoms: _51  and  _52
REMARK   23  A    between atoms: _55  and  _57
REMARK   24  A    between atoms: _57  and  _58
REMARK   25  A    between atoms: _57  and  _60
REMARK   26  A    between atoms: _60  and  _61
REMARK   27  A    between atoms: _64  and  _66
REMARK   28  A    between atoms: _66  and  _67
REMARK   29  A    between atoms: _66  and  _69
REMARK   30  A    between atoms: _69  and  _70
REMARK   31  A    between atoms: _73  and  _75
REMARK   32  A    between atoms: _75  and  _76
REMARK   33  A    between atoms: _78  and  _80
REMARK   34  A    between atoms: _80  and  _81
REMARK   35  A    between atoms: _84  and  _86
REMARK   36  A    between atoms: _86  and  _87
REMARK   37  A    between atoms: _86  and  _89
REMARK   38  A    between atoms: _89  and  _90
REMARK   39  A    between atoms: _93  and  _95
REMARK   40  A    between atoms: _95  and  _96
REMARK   41  A    between atoms: _95  and  _98
REMARK   42  A    between atoms: _98  and  _99
REMARK   43  A    between atoms: _102  and  _104
REMARK   44  A    between atoms: _104  and  _105
REMARK   45  A    between atoms: _104  and  _107
REMARK   46  A    between atoms: _107  and  _108
REMARK   47  A    between atoms: _111  and  _113
REMARK   48  A    between atoms: _113  and  _114
REMARK   49  A    between atoms: _113  and  _116
REMARK   50  A    between atoms: _119  and  _121
REMARK   51  A    between atoms: _121  and  _122
REMARK   52  A    between atoms: _121  and  _124
REMARK   53  A    between atoms: _124  and  _125
REMARK   54  A    between atoms: _125  and  _126
REMARK   55  A    between atoms: _126  and  _127
REMARK   56  A    between atoms: _127  and  _128
REMARK   57  A    between atoms: _132  and  _134
REMARK   58  A    between atoms: _134  and  _135
REMARK   59  A    between atoms: _134  and  _137
REMARK   60  A    between atoms: _137  and  _138
REMARK   61  A    between atoms: _138  and  _139
REMARK   62  A    between atoms: _141  and  _143
REMARK   63  A    between atoms: _143  and  _144
REMARK   64  A    between atoms: _143  and  _146
REMARK   65  A    between atoms: _146  and  _147
REMARK   66  A    between atoms: _150  and  _152
REMARK   67  A    between atoms: _152  and  _153
REMARK   68  A    between atoms: _155  and  _157
REMARK   69  A    between atoms: _157  and  _158
REMARK   70  A    between atoms: _160  and  _162
REMARK   71  A    between atoms: _162  and  _163
REMARK   72  A    between atoms: _162  and  _165
REMARK   73  A    between atoms: _165  and  _166
REMARK   74  A    between atoms: _169  and  _171
REMARK   75  A    between atoms: _171  and  _172
REMARK   76  A    between atoms: _174  and  _176
REMARK   77  A    between atoms: _176  and  _177
REMARK   78  A    between atoms: _179  and  _181
REMARK   79  A    between atoms: _181  and  _182
REMARK   80  A    between atoms: _181  and  _184
REMARK   81  A    between atoms: _184  and  _185
REMARK   82  A    between atoms: _191  and  _193
REMARK   83  A    between atoms: _193  and  _194
REMARK   84  A    between atoms: _193  and  _196
REMARK   85  A    between atoms: _196  and  _197
REMARK   86  A    between atoms: _200  and  _202
REMARK   87  A    between atoms: _202  and  _203
REMARK   88  A    between atoms: _202  and  _205
REMARK   89  A    between atoms: _208  and  _210
REMARK   90  A    between atoms: _210  and  _211
REMARK   91  A    between atoms: _210  and  _213
REMARK   92  A    between atoms: _213  and  _214
REMARK   93  A    between atoms: _218  and  _219
REMARK   94  A    between atoms: _224  and  _226
REMARK   95  A    between atoms: _226  and  _227
REMARK   96  A    between atoms: _226  and  _229
REMARK   97  A    between atoms: _229  and  _230
REMARK   98  A    between atoms: _234  and  _235
REMARK   99  A    between atoms: _240  and  _242
REMARK  100  A    between atoms: _242  and  _243
REMARK  101  A    between atoms: _242  and  _245
REMARK  102  A    between atoms: _248  and  _250
REMARK  103  A    between atoms: _250  and  _251
REMARK  104  A    between atoms: _250  and  _253
REMARK  105  A    between atoms: _253  and  _254
REMARK  106  A    between atoms: _259  and  _261
REMARK  107  A    between atoms: _261  and  _262
REMARK  108  A    between atoms: _261  and  _264
REMARK  109  A    between atoms: _267  and  _269
REMARK  110  A    between atoms: _269  and  _270
REMARK  111  A    between atoms: _269  and  _272
REMARK  112  A    between atoms: _272  and  _273
REMARK  113  A    between atoms: _276  and  _278
REMARK  114  A    between atoms: _278  and  _279
REMARK  115  A    between atoms: _281  and  _283
REMARK  116  A    between atoms: _283  and  _284
REMARK  117  A    between atoms: _283  and  _286
REMARK  118  A    between atoms: _287  and  _288
REMARK  119  A    between atoms: _288  and  _289
REMARK  120  A    between atoms: _298  and  _300
REMARK  121  A    between atoms: _300  and  _301
REMARK  122  A    between atoms: _300  and  _303
REMARK  123  A    between atoms: _303  and  _304
REMARK  124  A    between atoms: _309  and  _311
REMARK  125  A    between atoms: _311  and  _312
REMARK  126  A    between atoms: _311  and  _314
REMARK  127  A    between atoms: _314  and  _315
REMARK  128  A    between atoms: _315  and  _316
REMARK  129  A    between atoms: _316  and  _317
REMARK  130  A    between atoms: _326  and  _328
REMARK  131  A    between atoms: _328  and  _329
REMARK  132  A    between atoms: _328  and  _331
REMARK  133  A    between atoms: _331  and  _332
REMARK  134  A    between atoms: _335  and  _337
REMARK  135  A    between atoms: _337  and  _338
REMARK  136  A    between atoms: _337  and  _340
REMARK  137  A    between atoms: _340  and  _341
REMARK  138  A    between atoms: _344  and  _346
REMARK  139  A    between atoms: _346  and  _347
REMARK  140  A    between atoms: _346  and  _349
REMARK  141  A    between atoms: _349  and  _350
REMARK  142  A    between atoms: _353  and  _355
REMARK  143  A    between atoms: _355  and  _356
REMARK  144  A    between atoms: _355  and  _358
REMARK  145  A    between atoms: _358  and  _359
REMARK  146  A    between atoms: _362  and  _364
REMARK  147  A    between atoms: _364  and  _365
REMARK  148  A    between atoms: _367  and  _369
REMARK  149  A    between atoms: _369  and  _370
REMARK  150  A    between atoms: _373  and  _375
REMARK  151  A    between atoms: _375  and  _376
REMARK  152  A    between atoms: _375  and  _378
REMARK  153  A    between atoms: _378  and  _379
REMARK  154  A    between atoms: _382  and  _384
REMARK  155  A    between atoms: _384  and  _385
REMARK  156  A    between atoms: _384  and  _387
REMARK  157  A    between atoms: _387  and  _388
REMARK  158  A    between atoms: _391  and  _393
REMARK  159  A    between atoms: _393  and  _394
REMARK  160  A    between atoms: _393  and  _396
REMARK  161  A    between atoms: _396  and  _397
REMARK  162  A    between atoms: _400  and  _402
REMARK  163  A    between atoms: _402  and  _403
REMARK  164  A    between atoms: _402  and  _405
REMARK  165  A    between atoms: _408  and  _410
REMARK  166  A    between atoms: _410  and  _411
REMARK  167  A    between atoms: _410  and  _413
REMARK  168  A    between atoms: _413  and  _414
REMARK  169  A    between atoms: _414  and  _415
REMARK  170  A    between atoms: _415  and  _416
REMARK  171  A    between atoms: _416  and  _417
REMARK  172  A    between atoms: _421  and  _423
REMARK  173  A    between atoms: _423  and  _424
REMARK  174  A    between atoms: _423  and  _426
REMARK  175  A    between atoms: _426  and  _427
REMARK  176  A    between atoms: _427  and  _428
REMARK  177  A    between atoms: _430  and  _432
REMARK  178  A    between atoms: _432  and  _433
REMARK  179  A    between atoms: _432  and  _435
REMARK  180  A    between atoms: _435  and  _436
REMARK  181  A    between atoms: _439  and  _441
REMARK  182  A    between atoms: _441  and  _442
REMARK  183  A    between atoms: _444  and  _446
REMARK  184  A    between atoms: _446  and  _447
REMARK  185  A    between atoms: _449  and  _451
REMARK  186  A    between atoms: _451  and  _452
REMARK  187  A    between atoms: _451  and  _454
REMARK  188  A    between atoms: _454  and  _455
REMARK  189  A    between atoms: _458  and  _460
REMARK  190  A    between atoms: _460  and  _461
REMARK  191  A    between atoms: _463  and  _465
REMARK  192  A    between atoms: _465  and  _466
REMARK  193  A    between atoms: _468  and  _470
REMARK  194  A    between atoms: _470  and  _471
REMARK  195  A    between atoms: _470  and  _473
REMARK  196  A    between atoms: _473  and  _474
REMARK  197  A    between atoms: _480  and  _482
REMARK  198  A    between atoms: _482  and  _483
REMARK  199  A    between atoms: _482  and  _485
REMARK  200  A    between atoms: _485  and  _486
REMARK  201  A    between atoms: _489  and  _491
REMARK  202  A    between atoms: _491  and  _492
REMARK  203  A    between atoms: _491  and  _494
REMARK  204  A    between atoms: _497  and  _499
REMARK  205  A    between atoms: _499  and  _500
REMARK  206  A    between atoms: _499  and  _502
REMARK  207  A    between atoms: _502  and  _503
REMARK  208  A    between atoms: _507  and  _508
REMARK  209  A    between atoms: _513  and  _515
REMARK  210  A    between atoms: _515  and  _516
REMARK  211  A    between atoms: _515  and  _518
REMARK  212  A    between atoms: _518  and  _519
REMARK  213  A    between atoms: _523  and  _524
REMARK  214  A    between atoms: _529  and  _531
REMARK  215  A    between atoms: _531  and  _532
REMARK  216  A    between atoms: _531  and  _534
REMARK  217  A    between atoms: _537  and  _539
REMARK  218  A    between atoms: _539  and  _540
REMARK  219  A    between atoms: _539  and  _542
REMARK  220  A    between atoms: _542  and  _543
REMARK  221  A    between atoms: _548  and  _550
REMARK  222  A    between atoms: _550  and  _551
REMARK  223  A    between atoms: _550  and  _553
REMARK  224  A    between atoms: _556  and  _558
REMARK  225  A    between atoms: _558  and  _559
REMARK  226  A    between atoms: _558  and  _561
REMARK  227  A    between atoms: _561  and  _562
REMARK  228  A    between atoms: _565  and  _567
REMARK  229  A    between atoms: _567  and  _568
REMARK  230  A    between atoms: _570  and  _572
REMARK  231  A    between atoms: _572  and  _573
REMARK  232  A    between atoms: _572  and  _575
REMARK  233  A    between atoms: _575  and  _576
REMARK  234  A    between atoms: _576  and  _577
REMARK  235  A    between atoms: _577  and  _578
REMARK  236  A    between atoms: _587  and  _589
REMARK  237  A    between atoms: _589  and  _590
REMARK  238  A    between atoms: _589  and  _592
REMARK  239  A    between atoms: _592  and  _593
REMARK                            x       y       z     vdW  Elec       q    Type
REMARK                         _______ _______ _______ _____ _____    ______ ____
ROOT
ATOM      1  O   HOH     1       4.403  21.321  11.800  0.00  0.00    +0.000 OA
ENDROOT
TORSDOF 0
REMARK  Name = ../refined-set-2016/2aoc/2aoc_pocket.pdb
REMARK  239 active torsions:
REMARK  status: ('A' for Active; 'I' for Inactive)
REMARK    1  A    between atoms: _1  and  _3
REMARK    2  A    between atoms: _3  and  _4
REMARK    3  A    between atoms: _3  and  _6
REMARK    4  A    between atoms: _6  and  _7
REMARK    5  A    between atoms: _7  and  _8
REMARK    6  A    between atoms: _8  and  _9
REMARK    7  A    between atoms: _18  and  _20
REMARK    8  A    between atoms: _20  and  _21
REMARK    9  A    between atoms: _20  and  _23
REMARK   10  A    between atoms: _23  and  _24
REMARK   11  A    between atoms: _27  and  _29
REMARK   12  A    between atoms: _29  and  _30
REMARK   13  A    between atoms: _29  and  _32
REMARK   14  A    between atoms: _33  and  _34
REMARK   15  A    between atoms: _37  and  _39
REMARK   16  A    between atoms: _39  and  _40
REMARK   17  A    between atoms: _39  and  _42
REMARK   18  A    between atoms: _42  and  _43
REMARK   19  A    between atoms: _46  and  _48
REMARK   20  A    between atoms: _48  and  _49
REMARK   21  A    between atoms: _48  and  _51
REMARK   22  A    between atoms: _51  and  _52
REMARK   23  A    between atoms: _55  and  _57
REMARK   24  A    between atoms: _57  and  _58
REMARK   25  A    between atoms: _57  and  _60
REMARK   26  A    between atoms: _60  and  _61
REMARK   27  A    between atoms: _64  and  _66
REMARK   28  A    between atoms: _66  and  _67
REMARK   29  A    between atoms: _66  and  _69
REMARK   30  A    between atoms: _69  and  _70
REMARK   31  A    between atoms: _73  and  _75
REMARK   32  A    between atoms: _75  and  _76
REMARK   33  A    between atoms: _78  and  _80
REMARK   34  A    between atoms: _80  and  _81
REMARK   35  A    between atoms: _84  and  _86
REMARK   36  A    between atoms: _86  and  _87
REMARK   37  A    between atoms: _86  and  _89
REMARK   38  A    between atoms: _89  and  _90
REMARK   39  A    between atoms: _93  and  _95
REMARK   40  A    between atoms: _95  and  _96
REMARK   41  A    between atoms: _95  and  _98
REMARK   42  A    between atoms: _98  and  _99
REMARK   43  A    between atoms: _102  and  _104
REMARK   44  A    between atoms: _104  and  _105
REMARK   45  A    between atoms: _104  and  _107
REMARK   46  A    between atoms: _107  and  _108
REMARK   47  A    between atoms: _111  and  _113
REMARK   48  A    between atoms: _113  and  _114
REMARK   49  A    between atoms: _113  and  _116
REMARK   50  A    between atoms: _119  and  _121
REMARK   51  A    between atoms: _121  and  _122
REMARK   52  A    between atoms: _121  and  _124
REMARK   53  A    between atoms: _124  and  _125
REMARK   54  A    between atoms: _125  and  _126
REMARK   55  A    between atoms: _126  and  _127
REMARK   56  A    between atoms: _127  and  _128
REMARK   57  A    between atoms: _132  and  _134
REMARK   58  A    between atoms: _134  and  _135
REMARK   59  A    between atoms: _134  and  _137
REMARK   60  A    between atoms: _137  and  _138
REMARK   61  A    between atoms: _138  and  _139
REMARK   62  A    between atoms: _141  and  _143
REMARK   63  A    between atoms: _143  and  _144
REMARK   64  A    between atoms: _143  and  _146
REMARK   65  A    between atoms: _146  and  _147
REMARK   66  A    between atoms: _150  and  _152
REMARK   67  A    between atoms: _152  and  _153
REMARK   68  A    between atoms: _155  and  _157
REMARK   69  A    between atoms: _157  and  _158
REMARK   70  A    between atoms: _160  and  _162
REMARK   71  A    between atoms: _162  and  _163
REMARK   72  A    between atoms: _162  and  _165
REMARK   73  A    between atoms: _165  and  _166
REMARK   74  A    between atoms: _169  and  _171
REMARK   75  A    between atoms: _171  and  _172
REMARK   76  A    between atoms: _174  and  _176
REMARK   77  A    between atoms: _176  and  _177
REMARK   78  A    between atoms: _179  and  _181
REMARK   79  A    between atoms: _181  and  _182
REMARK   80  A    between atoms: _181  and  _184
REMARK   81  A    between atoms: _184  and  _185
REMARK   82  A    between atoms: _191  and  _193
REMARK   83  A    between atoms: _193  and  _194
REMARK   84  A    between atoms: _193  and  _196
REMARK   85  A    between atoms: _196  and  _197
REMARK   86  A    between atoms: _200  and  _202
REMARK   87  A    between atoms: _202  and  _203
REMARK   88  A    between atoms: _202  and  _205
REMARK   89  A    between atoms: _208  and  _210
REMARK   90  A    between atoms: _210  and  _211
REMARK   91  A    between atoms: _210  and  _213
REMARK   92  A    between atoms: _213  and  _214
REMARK   93  A    between atoms: _218  and  _219
REMARK   94  A    between atoms: _224  and  _226
REMARK   95  A    between atoms: _226  and  _227
REMARK   96  A    between atoms: _226  and  _229
REMARK   97  A    between atoms: _229  and  _230
REMARK   98  A    between atoms: _234  and  _235
REMARK   99  A    between atoms: _240  and  _242
REMARK  100  A    between atoms: _242  and  _243
REMARK  101  A    between atoms: _242  and  _245
REMARK  102  A    between atoms: _248  and  _250
REMARK  103  A    between atoms: _250  and  _251
REMARK  104  A    between atoms: _250  and  _253
REMARK  105  A    between atoms: _253  and  _254
REMARK  106  A    between atoms: _259  and  _261
REMARK  107  A    between atoms: _261  and  _262
REMARK  108  A    between atoms: _261  and  _264
REMARK  109  A    between atoms: _267  and  _269
REMARK  110  A    between atoms: _269  and  _270
REMARK  111  A    between atoms: _269  and  _272
REMARK  112  A    between atoms: _272  and  _273
REMARK  113  A    between atoms: _276  and  _278
REMARK  114  A    between atoms: _278  and  _279
REMARK  115  A    between atoms: _281  and  _283
REMARK  116  A    between atoms: _283  and  _284
REMARK  117  A    between atoms: _283  and  _286
REMARK  118  A    between atoms: _287  and  _288
REMARK  119  A    between atoms: _288  and  _289
REMARK  120  A    between atoms: _298  and  _300
REMARK  121  A    between atoms: _300  and  _301
REMARK  122  A    between atoms: _300  and  _303
REMARK  123  A    between atoms: _303  and  _304
REMARK  124  A    between atoms: _309  and  _311
REMARK  125  A    between atoms: _311  and  _312
REMARK  126  A    between atoms: _311  and  _314
REMARK  127  A    between atoms: _314  and  _315
REMARK  128  A    between atoms: _315  and  _316
REMARK  129  A    between atoms: _316  and  _317
REMARK  130  A    between atoms: _326  and  _328
REMARK  131  A    between atoms: _328  and  _329
REMARK  132  A    between atoms: _328  and  _331
REMARK  133  A    between atoms: _331  and  _332
REMARK  134  A    between atoms: _335  and  _337
REMARK  135  A    between atoms: _337  and  _338
REMARK  136  A    between atoms: _337  and  _340
REMARK  137  A    between atoms: _340  and  _341
REMARK  138  A    between atoms: _344  and  _346
REMARK  139  A    between atoms: _346  and  _347
REMARK  140  A    between atoms: _346  and  _349
REMARK  141  A    between atoms: _349  and  _350
REMARK  142  A    between atoms: _353  and  _355
REMARK  143  A    between atoms: _355  and  _356
REMARK  144  A    between atoms: _355  and  _358
REMARK  145  A    between atoms: _358  and  _359
REMARK  146  A    between atoms: _362  and  _364
REMARK  147  A    between atoms: _364  and  _365
REMARK  148  A    between atoms: _367  and  _369
REMARK  149  A    between atoms: _369  and  _370
REMARK  150  A    between atoms: _373  and  _375
REMARK  151  A    between atoms: _375  and  _376
REMARK  152  A    between atoms: _375  and  _378
REMARK  153  A    between atoms: _378  and  _379
REMARK  154  A    between atoms: _382  and  _384
REMARK  155  A    between atoms: _384  and  _385
REMARK  156  A    between atoms: _384  and  _387
REMARK  157  A    between atoms: _387  and  _388
REMARK  158  A    between atoms: _391  and  _393
REMARK  159  A    between atoms: _393  and  _394
REMARK  160  A    between atoms: _393  and  _396
REMARK  161  A    between atoms: _396  and  _397
REMARK  162  A    between atoms: _400  and  _402
REMARK  163  A    between atoms: _402  and  _403
REMARK  164  A    between atoms: _402  and  _405
REMARK  165  A    between atoms: _408  and  _410
REMARK  166  A    between atoms: _410  and  _411
REMARK  167  A    between atoms: _410  and  _413
REMARK  168  A    between atoms: _413  and  _414
REMARK  169  A    between atoms: _414  and  _415
REMARK  170  A    between atoms: _415  and  _416
REMARK  171  A    between atoms: _416  and  _417
REMARK  172  A    between atoms: _421  and  _423
REMARK  173  A    between atoms: _423  and  _424
REMARK  174  A    between atoms: _423  and  _426
REMARK  175  A    between atoms: _426  and  _427
REMARK  176  A    between atoms: _427  and  _428
REMARK  177  A    between atoms: _430  and  _432
REMARK  178  A    between atoms: _432  and  _433
REMARK  179  A    between atoms: _432  and  _435
REMARK  180  A    between atoms: _435  and  _436
REMARK  181  A    between atoms: _439  and  _441
REMARK  182  A    between atoms: _441  and  _442
REMARK  183  A    between atoms: _444  and  _446
REMARK  184  A    between atoms: _446  and  _447
REMARK  185  A    between atoms: _449  and  _451
REMARK  186  A    between atoms: _451  and  _452
REMARK  187  A    between atoms: _451  and  _454
REMARK  188  A    between atoms: _454  and  _455
REMARK  189  A    between atoms: _458  and  _460
REMARK  190  A    between atoms: _460  and  _461
REMARK  191  A    between atoms: _463  and  _465
REMARK  192  A    between atoms: _465  and  _466
REMARK  193  A    between atoms: _468  and  _470
REMARK  194  A    between atoms: _470  and  _471
REMARK  195  A    between atoms: _470  and  _473
REMARK  196  A    between atoms: _473  and  _474
REMARK  197  A    between atoms: _480  and  _482
REMARK  198  A    between atoms: _482  and  _483
REMARK  199  A    between atoms: _482  and  _485
REMARK  200  A    between atoms: _485  and  _486
REMARK  201  A    between atoms: _489  and  _491
REMARK  202  A    between atoms: _491  and  _492
REMARK  203  A    between atoms: _491  and  _494
REMARK  204  A    between atoms: _497  and  _499
REMARK  205  A    between atoms: _499  and  _500
REMARK  206  A    between atoms: _499  and  _502
REMARK  207  A    between atoms: _502  and  _503
REMARK  208  A    between atoms: _507  and  _508
REMARK  209  A    between atoms: _513  and  _515
REMARK  210  A    between atoms: _515  and  _516
REMARK  211  A    between atoms: _515  and  _518
REMARK  212  A    between atoms: _518  and  _519
REMARK  213  A    between atoms: _523  and  _524
REMARK  214  A    between atoms: _529  and  _531
REMARK  215  A    between atoms: _531  and  _532
REMARK  216  A    between atoms: _531  and  _534
REMARK  217  A    between atoms: _537  and  _539
REMARK  218  A    between atoms: _539  and  _540
REMARK  219  A    between atoms: _539  and  _542
REMARK  220  A    between atoms: _542  and  _543
REMARK  221  A    between atoms: _548  and  _550
REMARK  222  A    between atoms: _550  and  _551
REMARK  223  A    between atoms: _550  and  _553
REMARK  224  A    between atoms: _556  and  _558
REMARK  225  A    between atoms: _558  and  _559
REMARK  226  A    between atoms: _558  and  _561
REMARK  227  A    between atoms: _561  and  _562
REMARK  228  A    between atoms: _565  and  _567
REMARK  229  A    between atoms: _567  and  _568
REMARK  230  A    between atoms: _570  and  _572
REMARK  231  A    between atoms: _572  and  _573
REMARK  232  A    between atoms: _572  and  _575
REMARK  233  A    between atoms: _575  and  _576
REMARK  234  A    between atoms: _576  and  _577
REMARK  235  A    between atoms: _577  and  _578
REMARK  236  A    between atoms: _587  and  _589
REMARK  237  A    between atoms: _589  and  _590
REMARK  238  A    between atoms: _589  and  _592
REMARK  239  A    between atoms: _592  and  _593
REMARK                            x       y       z     vdW  Elec       q    Type
REMARK                         _______ _______ _______ _____ _____    ______ ____
ROOT
ATOM      1  O   HOH     1      24.950  33.089  15.440  0.00  0.00    +0.000 OA
ENDROOT
TORSDOF 0
REMARK  Name = ../refined-set-2016/2aoc/2aoc_pocket.pdb
REMARK  239 active torsions:
REMARK  status: ('A' for Active; 'I' for Inactive)
REMARK    1  A    between atoms: _1  and  _3
REMARK    2  A    between atoms: _3  and  _4
REMARK    3  A    between atoms: _3  and  _6
REMARK    4  A    between atoms: _6  and  _7
REMARK    5  A    between atoms: _7  and  _8
REMARK    6  A    between atoms: _8  and  _9
REMARK    7  A    between atoms: _18  and  _20
REMARK    8  A    between atoms: _20  and  _21
REMARK    9  A    between atoms: _20  and  _23
REMARK   10  A    between atoms: _23  and  _24
REMARK   11  A    between atoms: _27  and  _29
REMARK   12  A    between atoms: _29  and  _30
REMARK   13  A    between atoms: _29  and  _32
REMARK   14  A    between atoms: _33  and  _34
REMARK   15  A    between atoms: _37  and  _39
REMARK   16  A    between atoms: _39  and  _40
REMARK   17  A    between atoms: _39  and  _42
REMARK   18  A    between atoms: _42  and  _43
REMARK   19  A    between atoms: _46  and  _48
REMARK   20  A    between atoms: _48  and  _49
REMARK   21  A    between atoms: _48  and  _51
REMARK   22  A    between atoms: _51  and  _52
REMARK   23  A    between atoms: _55  and  _57
REMARK   24  A    between atoms: _57  and  _58
REMARK   25  A    between atoms: _57  and  _60
REMARK   26  A    between atoms: _60  and  _61
REMARK   27  A    between atoms: _64  and  _66
REMARK   28  A    between atoms: _66  and  _67
REMARK   29  A    between atoms: _66  and  _69
REMARK   30  A    between atoms: _69  and  _70
REMARK   31  A    between atoms: _73  and  _75
REMARK   32  A    between atoms: _75  and  _76
REMARK   33  A    between atoms: _78  and  _80
REMARK   34  A    between atoms: _80  and  _81
REMARK   35  A    between atoms: _84  and  _86
REMARK   36  A    between atoms: _86  and  _87
REMARK   37  A    between atoms: _86  and  _89
REMARK   38  A    between atoms: _89  and  _90
REMARK   39  A    between atoms: _93  and  _95
REMARK   40  A    between atoms: _95  and  _96
REMARK   41  A    between atoms: _95  and  _98
REMARK   42  A    between atoms: _98  and  _99
REMARK   43  A    between atoms: _102  and  _104
REMARK   44  A    between atoms: _104  and  _105
REMARK   45  A    between atoms: _104  and  _107
REMARK   46  A    between atoms: _107  and  _108
REMARK   47  A    between atoms: _111  and  _113
REMARK   48  A    between atoms: _113  and  _114
REMARK   49  A    between atoms: _113  and  _116
REMARK   50  A    between atoms: _119  and  _121
REMARK   51  A    between atoms: _121  and  _122
REMARK   52  A    between atoms: _121  and  _124
REMARK   53  A    between atoms: _124  and  _125
REMARK   54  A    between atoms: _125  and  _126
REMARK   55  A    between atoms: _126  and  _127
REMARK   56  A    between atoms: _127  and  _128
REMARK   57  A    between atoms: _132  and  _134
REMARK   58  A    between atoms: _134  and  _135
REMARK   59  A    between atoms: _134  and  _137
REMARK   60  A    between atoms: _137  and  _138
REMARK   61  A    between atoms: _138  and  _139
REMARK   62  A    between atoms: _141  and  _143
REMARK   63  A    between atoms: _143  and  _144
REMARK   64  A    between atoms: _143  and  _146
REMARK   65  A    between atoms: _146  and  _147
REMARK   66  A    between atoms: _150  and  _152
REMARK   67  A    between atoms: _152  and  _153
REMARK   68  A    between atoms: _155  and  _157
REMARK   69  A    between atoms: _157  and  _158
REMARK   70  A    between atoms: _160  and  _162
REMARK   71  A    between atoms: _162  and  _163
REMARK   72  A    between atoms: _162  and  _165
REMARK   73  A    between atoms: _165  and  _166
REMARK   74  A    between atoms: _169  and  _171
REMARK   75  A    between atoms: _171  and  _172
REMARK   76  A    between atoms: _174  and  _176
REMARK   77  A    between atoms: _176  and  _177
REMARK   78  A    between atoms: _179  and  _181
REMARK   79  A    between atoms: _181  and  _182
REMARK   80  A    between atoms: _181  and  _184
REMARK   81  A    between atoms: _184  and  _185
REMARK   82  A    between atoms: _191  and  _193
REMARK   83  A    between atoms: _193  and  _194
REMARK   84  A    between atoms: _193  and  _196
REMARK   85  A    between atoms: _196  and  _197
REMARK   86  A    between atoms: _200  and  _202
REMARK   87  A    between atoms: _202  and  _203
REMARK   88  A    between atoms: _202  and  _205
REMARK   89  A    between atoms: _208  and  _210
REMARK   90  A    between atoms: _210  and  _211
REMARK   91  A    between atoms: _210  and  _213
REMARK   92  A    between atoms: _213  and  _214
REMARK   93  A    between atoms: _218  and  _219
REMARK   94  A    between atoms: _224  and  _226
REMARK   95  A    between atoms: _226  and  _227
REMARK   96  A    between atoms: _226  and  _229
REMARK   97  A    between atoms: _229  and  _230
REMARK   98  A    between atoms: _234  and  _235
REMARK   99  A    between atoms: _240  and  _242
REMARK  100  A    between atoms: _242  and  _243
REMARK  101  A    between atoms: _242  and  _245
REMARK  102  A    between atoms: _248  and  _250
REMARK  103  A    between atoms: _250  and  _251
REMARK  104  A    between atoms: _250  and  _253
REMARK  105  A    between atoms: _253  and  _254
REMARK  106  A    between atoms: _259  and  _261
REMARK  107  A    between atoms: _261  and  _262
REMARK  108  A    between atoms: _261  and  _264
REMARK  109  A    between atoms: _267  and  _269
REMARK  110  A    between atoms: _269  and  _270
REMARK  111  A    between atoms: _269  and  _272
REMARK  112  A    between atoms: _272  and  _273
REMARK  113  A    between atoms: _276  and  _278
REMARK  114  A    between atoms: _278  and  _279
REMARK  115  A    between atoms: _281  and  _283
REMARK  116  A    between atoms: _283  and  _284
REMARK  117  A    between atoms: _283  and  _286
REMARK  118  A    between atoms: _287  and  _288
REMARK  119  A    between atoms: _288  and  _289
REMARK  120  A    between atoms: _298  and  _300
REMARK  121  A    between atoms: _300  and  _301
REMARK  122  A    between atoms: _300  and  _303
REMARK  123  A    between atoms: _303  and  _304
REMARK  124  A    between atoms: _309  and  _311
REMARK  125  A    between atoms: _311  and  _312
REMARK  126  A    between atoms: _311  and  _314
REMARK  127  A    between atoms: _314  and  _315
REMARK  128  A    between atoms: _315  and  _316
REMARK  129  A    between atoms: _316  and  _317
REMARK  130  A    between atoms: _326  and  _328
REMARK  131  A    between atoms: _328  and  _329
REMARK  132  A    between atoms: _328  and  _331
REMARK  133  A    between atoms: _331  and  _332
REMARK  134  A    between atoms: _335  and  _337
REMARK  135  A    between atoms: _337  and  _338
REMARK  136  A    between atoms: _337  and  _340
REMARK  137  A    between atoms: _340  and  _341
REMARK  138  A    between atoms: _344  and  _346
REMARK  139  A    between atoms: _346  and  _347
REMARK  140  A    between atoms: _346  and  _349
REMARK  141  A    between atoms: _349  and  _350
REMARK  142  A    between atoms: _353  and  _355
REMARK  143  A    between atoms: _355  and  _356
REMARK  144  A    between atoms: _355  and  _358
REMARK  145  A    between atoms: _358  and  _359
REMARK  146  A    between atoms: _362  and  _364
REMARK  147  A    between atoms: _364  and  _365
REMARK  148  A    between atoms: _367  and  _369
REMARK  149  A    between atoms: _369  and  _370
REMARK  150  A    between atoms: _373  and  _375
REMARK  151  A    between atoms: _375  and  _376
REMARK  152  A    between atoms: _375  and  _378
REMARK  153  A    between atoms: _378  and  _379
REMARK  154  A    between atoms: _382  and  _384
REMARK  155  A    between atoms: _384  and  _385
REMARK  156  A    between atoms: _384  and  _387
REMARK  157  A    between atoms: _387  and  _388
REMARK  158  A    between atoms: _391  and  _393
REMARK  159  A    between atoms: _393  and  _394
REMARK  160  A    between atoms: _393  and  _396
REMARK  161  A    between atoms: _396  and  _397
REMARK  162  A    between atoms: _400  and  _402
REMARK  163  A    between atoms: _402  and  _403
REMARK  164  A    between atoms: _402  and  _405
REMARK  165  A    between atoms: _408  and  _410
REMARK  166  A    between atoms: _410  and  _411
REMARK  167  A    between atoms: _410  and  _413
REMARK  168  A    between atoms: _413  and  _414
REMARK  169  A    between atoms: _414  and  _415
REMARK  170  A    between atoms: _415  and  _416
REMARK  171  A    between atoms: _416  and  _417
REMARK  172  A    between atoms: _421  and  _423
REMARK  173  A    between atoms: _423  and  _424
REMARK  174  A    between atoms: _423  and  _426
REMARK  175  A    between atoms: _426  and  _427
REMARK  176  A    between atoms: _427  and  _428
REMARK  177  A    between atoms: _430  and  _432
REMARK  178  A    between atoms: _432  and  _433
REMARK  179  A    between atoms: _432  and  _435
REMARK  180  A    between atoms: _435  and  _436
REMARK  181  A    between atoms: _439  and  _441
REMARK  182  A    between atoms: _441  and  _442
REMARK  183  A    between atoms: _444  and  _446
REMARK  184  A    between atoms: _446  and  _447
REMARK  185  A    between atoms: _449  and  _451
REMARK  186  A    between atoms: _451  and  _452
REMARK  187  A    between atoms: _451  and  _454
REMARK  188  A    between atoms: _454  and  _455
REMARK  189  A    between atoms: _458  and  _460
REMARK  190  A    between atoms: _460  and  _461
REMARK  191  A    between atoms: _463  and  _465
REMARK  192  A    between atoms: _465  and  _466
REMARK  193  A    between atoms: _468  and  _470
REMARK  194  A    between atoms: _470  and  _471
REMARK  195  A    between atoms: _470  and  _473
REMARK  196  A    between atoms: _473  and  _474
REMARK  197  A    between atoms: _480  and  _482
REMARK  198  A    between atoms: _482  and  _483
REMARK  199  A    between atoms: _482  and  _485
REMARK  200  A    between atoms: _485  and  _486
REMARK  201  A    between atoms: _489  and  _491
REMARK  202  A    between atoms: _491  and  _492
REMARK  203  A    between atoms: _491  and  _494
REMARK  204  A    between atoms: _497  and  _499
REMARK  205  A    between atoms: _499  and  _500
REMARK  206  A    between atoms: _499  and  _502
REMARK  207  A    between atoms: _502  and  _503
REMARK  208  A    between atoms: _507  and  _508
REMARK  209  A    between atoms: _513  and  _515
REMARK  210  A    between atoms: _515  and  _516
REMARK  211  A    between atoms: _515  and  _518
REMARK  212  A    between atoms: _518  and  _519
REMARK  213  A    between atoms: _523  and  _524
REMARK  214  A    between atoms: _529  and  _531
REMARK  215  A    between atoms: _531  and  _532
REMARK  216  A    between atoms: _531  and  _534
REMARK  217  A    between atoms: _537  and  _539
REMARK  218  A    between atoms: _539  and  _540
REMARK  219  A    between atoms: _539  and  _542
REMARK  220  A    between atoms: _542  and  _543
REMARK  221  A    between atoms: _548  and  _550
REMARK  222  A    between atoms: _550  and  _551
REMARK  223  A    between atoms: _550  and  _553
REMARK  224  A    between atoms: _556  and  _558
REMARK  225  A    between atoms: _558  and  _559
REMARK  226  A    between atoms: _558  and  _561
REMARK  227  A    between atoms: _561  and  _562
REMARK  228  A    between atoms: _565  and  _567
REMARK  229  A    between atoms: _567  and  _568
REMARK  230  A    between atoms: _570  and  _572
REMARK  231  A    between atoms: _572  and  _573
REMARK  232  A    between atoms: _572  and  _575
REMARK  233  A    between atoms: _575  and  _576
REMARK  234  A    between atoms: _576  and  _577
REMARK  235  A    between atoms: _577  and  _578
REMARK  236  A    between atoms: _587  and  _589
REMARK  237  A    between atoms: _589  and  _590
REMARK  238  A    between atoms: _589  and  _592
REMARK  239  A    between atoms: _592  and  _593
REMARK                            x       y       z     vdW  Elec       q    Type
REMARK                         _______ _______ _______ _____ _____    ______ ____
ROOT
ATOM      1  O   HOH     1      22.582  34.631  12.276  0.00  0.00    +0.000 OA
ENDROOT
TORSDOF 0
REMARK  Name = ../refined-set-2016/2aoc/2aoc_pocket.pdb
REMARK  239 active torsions:
REMARK  status: ('A' for Active; 'I' for Inactive)
REMARK    1  A    between atoms: _1  and  _3
REMARK    2  A    between atoms: _3  and  _4
REMARK    3  A    between atoms: _3  and  _6
REMARK    4  A    between atoms: _6  and  _7
REMARK    5  A    between atoms: _7  and  _8
REMARK    6  A    between atoms: _8  and  _9
REMARK    7  A    between atoms: _18  and  _20
REMARK    8  A    between atoms: _20  and  _21
REMARK    9  A    between atoms: _20  and  _23
REMARK   10  A    between atoms: _23  and  _24
REMARK   11  A    between atoms: _27  and  _29
REMARK   12  A    between atoms: _29  and  _30
REMARK   13  A    between atoms: _29  and  _32
REMARK   14  A    between atoms: _33  and  _34
REMARK   15  A    between atoms: _37  and  _39
REMARK   16  A    between atoms: _39  and  _40
REMARK   17  A    between atoms: _39  and  _42
REMARK   18  A    between atoms: _42  and  _43
REMARK   19  A    between atoms: _46  and  _48
REMARK   20  A    between atoms: _48  and  _49
REMARK   21  A    between atoms: _48  and  _51
REMARK   22  A    between atoms: _51  and  _52
REMARK   23  A    between atoms: _55  and  _57
REMARK   24  A    between atoms: _57  and  _58
REMARK   25  A    between atoms: _57  and  _60
REMARK   26  A    between atoms: _60  and  _61
REMARK   27  A    between atoms: _64  and  _66
REMARK   28  A    between atoms: _66  and  _67
REMARK   29  A    between atoms: _66  and  _69
REMARK   30  A    between atoms: _69  and  _70
REMARK   31  A    between atoms: _73  and  _75
REMARK   32  A    between atoms: _75  and  _76
REMARK   33  A    between atoms: _78  and  _80
REMARK   34  A    between atoms: _80  and  _81
REMARK   35  A    between atoms: _84  and  _86
REMARK   36  A    between atoms: _86  and  _87
REMARK   37  A    between atoms: _86  and  _89
REMARK   38  A    between atoms: _89  and  _90
REMARK   39  A    between atoms: _93  and  _95
REMARK   40  A    between atoms: _95  and  _96
REMARK   41  A    between atoms: _95  and  _98
REMARK   42  A    between atoms: _98  and  _99
REMARK   43  A    between atoms: _102  and  _104
REMARK   44  A    between atoms: _104  and  _105
REMARK   45  A    between atoms: _104  and  _107
REMARK   46  A    between atoms: _107  and  _108
REMARK   47  A    between atoms: _111  and  _113
REMARK   48  A    between atoms: _113  and  _114
REMARK   49  A    between atoms: _113  and  _116
REMARK   50  A    between atoms: _119  and  _121
REMARK   51  A    between atoms: _121  and  _122
REMARK   52  A    between atoms: _121  and  _124
REMARK   53  A    between atoms: _124  and  _125
REMARK   54  A    between atoms: _125  and  _126
REMARK   55  A    between atoms: _126  and  _127
REMARK   56  A    between atoms: _127  and  _128
REMARK   57  A    between atoms: _132  and  _134
REMARK   58  A    between atoms: _134  and  _135
REMARK   59  A    between atoms: _134  and  _137
REMARK   60  A    between atoms: _137  and  _138
REMARK   61  A    between atoms: _138  and  _139
REMARK   62  A    between atoms: _141  and  _143
REMARK   63  A    between atoms: _143  and  _144
REMARK   64  A    between atoms: _143  and  _146
REMARK   65  A    between atoms: _146  and  _147
REMARK   66  A    between atoms: _150  and  _152
REMARK   67  A    between atoms: _152  and  _153
REMARK   68  A    between atoms: _155  and  _157
REMARK   69  A    between atoms: _157  and  _158
REMARK   70  A    between atoms: _160  and  _162
REMARK   71  A    between atoms: _162  and  _163
REMARK   72  A    between atoms: _162  and  _165
REMARK   73  A    between atoms: _165  and  _166
REMARK   74  A    between atoms: _169  and  _171
REMARK   75  A    between atoms: _171  and  _172
REMARK   76  A    between atoms: _174  and  _176
REMARK   77  A    between atoms: _176  and  _177
REMARK   78  A    between atoms: _179  and  _181
REMARK   79  A    between atoms: _181  and  _182
REMARK   80  A    between atoms: _181  and  _184
REMARK   81  A    between atoms: _184  and  _185
REMARK   82  A    between atoms: _191  and  _193
REMARK   83  A    between atoms: _193  and  _194
REMARK   84  A    between atoms: _193  and  _196
REMARK   85  A    between atoms: _196  and  _197
REMARK   86  A    between atoms: _200  and  _202
REMARK   87  A    between atoms: _202  and  _203
REMARK   88  A    between atoms: _202  and  _205
REMARK   89  A    between atoms: _208  and  _210
REMARK   90  A    between atoms: _210  and  _211
REMARK   91  A    between atoms: _210  and  _213
REMARK   92  A    between atoms: _213  and  _214
REMARK   93  A    between atoms: _218  and  _219
REMARK   94  A    between atoms: _224  and  _226
REMARK   95  A    between atoms: _226  and  _227
REMARK   96  A    between atoms: _226  and  _229
REMARK   97  A    between atoms: _229  and  _230
REMARK   98  A    between atoms: _234  and  _235
REMARK   99  A    between atoms: _240  and  _242
REMARK  100  A    between atoms: _242  and  _243
REMARK  101  A    between atoms: _242  and  _245
REMARK  102  A    between atoms: _248  and  _250
REMARK  103  A    between atoms: _250  and  _251
REMARK  104  A    between atoms: _250  and  _253
REMARK  105  A    between atoms: _253  and  _254
REMARK  106  A    between atoms: _259  and  _261
REMARK  107  A    between atoms: _261  and  _262
REMARK  108  A    between atoms: _261  and  _264
REMARK  109  A    between atoms: _267  and  _269
REMARK  110  A    between atoms: _269  and  _270
REMARK  111  A    between atoms: _269  and  _272
REMARK  112  A    between atoms: _272  and  _273
REMARK  113  A    between atoms: _276  and  _278
REMARK  114  A    between atoms: _278  and  _279
REMARK  115  A    between atoms: _281  and  _283
REMARK  116  A    between atoms: _283  and  _284
REMARK  117  A    between atoms: _283  and  _286
REMARK  118  A    between atoms: _287  and  _288
REMARK  119  A    between atoms: _288  and  _289
REMARK  120  A    between atoms: _298  and  _300
REMARK  121  A    between atoms: _300  and  _301
REMARK  122  A    between atoms: _300  and  _303
REMARK  123  A    between atoms: _303  and  _304
REMARK  124  A    between atoms: _309  and  _311
REMARK  125  A    between atoms: _311  and  _312
REMARK  126  A    between atoms: _311  and  _314
REMARK  127  A    between atoms: _314  and  _315
REMARK  128  A    between atoms: _315  and  _316
REMARK  129  A    between atoms: _316  and  _317
REMARK  130  A    between atoms: _326  and  _328
REMARK  131  A    between atoms: _328  and  _329
REMARK  132  A    between atoms: _328  and  _331
REMARK  133  A    between atoms: _331  and  _332
REMARK  134  A    between atoms: _335  and  _337
REMARK  135  A    between atoms: _337  and  _338
REMARK  136  A    between atoms: _337  and  _340
REMARK  137  A    between atoms: _340  and  _341
REMARK  138  A    between atoms: _344  and  _346
REMARK  139  A    between atoms: _346  and  _347
REMARK  140  A    between atoms: _346  and  _349
REMARK  141  A    between atoms: _349  and  _350
REMARK  142  A    between atoms: _353  and  _355
REMARK  143  A    between atoms: _355  and  _356
REMARK  144  A    between atoms: _355  and  _358
REMARK  145  A    between atoms: _358  and  _359
REMARK  146  A    between atoms: _362  and  _364
REMARK  147  A    between atoms: _364  and  _365
REMARK  148  A    between atoms: _367  and  _369
REMARK  149  A    between atoms: _369  and  _370
REMARK  150  A    between atoms: _373  and  _375
REMARK  151  A    between atoms: _375  and  _376
REMARK  152  A    between atoms: _375  and  _378
REMARK  153  A    between atoms: _378  and  _379
REMARK  154  A    between atoms: _382  and  _384
REMARK  155  A    between atoms: _384  and  _385
REMARK  156  A    between atoms: _384  and  _387
REMARK  157  A    between atoms: _387  and  _388
REMARK  158  A    between atoms: _391  and  _393
REMARK  159  A    between atoms: _393  and  _394
REMARK  160  A    between atoms: _393  and  _396
REMARK  161  A    between atoms: _396  and  _397
REMARK  162  A    between atoms: _400  and  _402
REMARK  163  A    between atoms: _402  and  _403
REMARK  164  A    between atoms: _402  and  _405
REMARK  165  A    between atoms: _408  and  _410
REMARK  166  A    between atoms: _410  and  _411
REMARK  167  A    between atoms: _410  and  _413
REMARK  168  A    between atoms: _413  and  _414
REMARK  169  A    between atoms: _414  and  _415
REMARK  170  A    between atoms: _415  and  _416
REMARK  171  A    between atoms: _416  and  _417
REMARK  172  A    between atoms: _421  and  _423
REMARK  173  A    between atoms: _423  and  _424
REMARK  174  A    between atoms: _423  and  _426
REMARK  175  A    between atoms: _426  and  _427
REMARK  176  A    between atoms: _427  and  _428
REMARK  177  A    between atoms: _430  and  _432
REMARK  178  A    between atoms: _432  and  _433
REMARK  179  A    between atoms: _432  and  _435
REMARK  180  A    between atoms: _435  and  _436
REMARK  181  A    between atoms: _439  and  _441
REMARK  182  A    between atoms: _441  and  _442
REMARK  183  A    between atoms: _444  and  _446
REMARK  184  A    between atoms: _446  and  _447
REMARK  185  A    between atoms: _449  and  _451
REMARK  186  A    between atoms: _451  and  _452
REMARK  187  A    between atoms: _451  and  _454
REMARK  188  A    between atoms: _454  and  _455
REMARK  189  A    between atoms: _458  and  _460
REMARK  190  A    between atoms: _460  and  _461
REMARK  191  A    between atoms: _463  and  _465
REMARK  192  A    between atoms: _465  and  _466
REMARK  193  A    between atoms: _468  and  _470
REMARK  194  A    between atoms: _470  and  _471
REMARK  195  A    between atoms: _470  and  _473
REMARK  196  A    between atoms: _473  and  _474
REMARK  197  A    between atoms: _480  and  _482
REMARK  198  A    between atoms: _482  and  _483
REMARK  199  A    between atoms: _482  and  _485
REMARK  200  A    between atoms: _485  and  _486
REMARK  201  A    between atoms: _489  and  _491
REMARK  202  A    between atoms: _491  and  _492
REMARK  203  A    between atoms: _491  and  _494
REMARK  204  A    between atoms: _497  and  _499
REMARK  205  A    between atoms: _499  and  _500
REMARK  206  A    between atoms: _499  and  _502
REMARK  207  A    between atoms: _502  and  _503
REMARK  208  A    between atoms: _507  and  _508
REMARK  209  A    between atoms: _513  and  _515
REMARK  210  A    between atoms: _515  and  _516
REMARK  211  A    between atoms: _515  and  _518
REMARK  212  A    between atoms: _518  and  _519
REMARK  213  A    between atoms: _523  and  _524
REMARK  214  A    between atoms: _529  and  _531
REMARK  215  A    between atoms: _531  and  _532
REMARK  216  A    between atoms: _531  and  _534
REMARK  217  A    between atoms: _537  and  _539
REMARK  218  A    between atoms: _539  and  _540
REMARK  219  A    between atoms: _539  and  _542
REMARK  220  A    between atoms: _542  and  _543
REMARK  221  A    between atoms: _548  and  _550
REMARK  222  A    between atoms: _550  and  _551
REMARK  223  A    between atoms: _550  and  _553
REMARK  224  A    between atoms: _556  and  _558
REMARK  225  A    between atoms: _558  and  _559
REMARK  226  A    between atoms: _558  and  _561
REMARK  227  A    between atoms: _561  and  _562
REMARK  228  A    between atoms: _565  and  _567
REMARK  229  A    between atoms: _567  and  _568
REMARK  230  A    between atoms: _570  and  _572
REMARK  231  A    between atoms: _572  and  _573
REMARK  232  A    between atoms: _572  and  _575
REMARK  233  A    between atoms: _575  and  _576
REMARK  234  A    between atoms: _576  and  _577
REMARK  235  A    between atoms: _577  and  _578
REMARK  236  A    between atoms: _587  and  _589
REMARK  237  A    between atoms: _589  and  _590
REMARK  238  A    between atoms: _589  and  _592
REMARK  239  A    between atoms: _592  and  _593
REMARK                            x       y       z     vdW  Elec       q    Type
REMARK                         _______ _______ _______ _____ _____    ______ ____
ROOT
ATOM      1  O   HOH     1      30.359  31.261  17.379  0.00  0.00    +0.000 OA
ENDROOT
TORSDOF 0
REMARK  Name = ../refined-set-2016/2aoc/2aoc_pocket.pdb
REMARK  239 active torsions:
REMARK  status: ('A' for Active; 'I' for Inactive)
REMARK    1  A    between atoms: _1  and  _3
REMARK    2  A    between atoms: _3  and  _4
REMARK    3  A    between atoms: _3  and  _6
REMARK    4  A    between atoms: _6  and  _7
REMARK    5  A    between atoms: _7  and  _8
REMARK    6  A    between atoms: _8  and  _9
REMARK    7  A    between atoms: _18  and  _20
REMARK    8  A    between atoms: _20  and  _21
REMARK    9  A    between atoms: _20  and  _23
REMARK   10  A    between atoms: _23  and  _24
REMARK   11  A    between atoms: _27  and  _29
REMARK   12  A    between atoms: _29  and  _30
REMARK   13  A    between atoms: _29  and  _32
REMARK   14  A    between atoms: _33  and  _34
REMARK   15  A    between atoms: _37  and  _39
REMARK   16  A    between atoms: _39  and  _40
REMARK   17  A    between atoms: _39  and  _42
REMARK   18  A    between atoms: _42  and  _43
REMARK   19  A    between atoms: _46  and  _48
REMARK   20  A    between atoms: _48  and  _49
REMARK   21  A    between atoms: _48  and  _51
REMARK   22  A    between atoms: _51  and  _52
REMARK   23  A    between atoms: _55  and  _57
REMARK   24  A    between atoms: _57  and  _58
REMARK   25  A    between atoms: _57  and  _60
REMARK   26  A    between atoms: _60  and  _61
REMARK   27  A    between atoms: _64  and  _66
REMARK   28  A    between atoms: _66  and  _67
REMARK   29  A    between atoms: _66  and  _69
REMARK   30  A    between atoms: _69  and  _70
REMARK   31  A    between atoms: _73  and  _75
REMARK   32  A    between atoms: _75  and  _76
REMARK   33  A    between atoms: _78  and  _80
REMARK   34  A    between atoms: _80  and  _81
REMARK   35  A    between atoms: _84  and  _86
REMARK   36  A    between atoms: _86  and  _87
REMARK   37  A    between atoms: _86  and  _89
REMARK   38  A    between atoms: _89  and  _90
REMARK   39  A    between atoms: _93  and  _95
REMARK   40  A    between atoms: _95  and  _96
REMARK   41  A    between atoms: _95  and  _98
REMARK   42  A    between atoms: _98  and  _99
REMARK   43  A    between atoms: _102  and  _104
REMARK   44  A    between atoms: _104  and  _105
REMARK   45  A    between atoms: _104  and  _107
REMARK   46  A    between atoms: _107  and  _108
REMARK   47  A    between atoms: _111  and  _113
REMARK   48  A    between atoms: _113  and  _114
REMARK   49  A    between atoms: _113  and  _116
REMARK   50  A    between atoms: _119  and  _121
REMARK   51  A    between atoms: _121  and  _122
REMARK   52  A    between atoms: _121  and  _124
REMARK   53  A    between atoms: _124  and  _125
REMARK   54  A    between atoms: _125  and  _126
REMARK   55  A    between atoms: _126  and  _127
REMARK   56  A    between atoms: _127  and  _128
REMARK   57  A    between atoms: _132  and  _134
REMARK   58  A    between atoms: _134  and  _135
REMARK   59  A    between atoms: _134  and  _137
REMARK   60  A    between atoms: _137  and  _138
REMARK   61  A    between atoms: _138  and  _139
REMARK   62  A    between atoms: _141  and  _143
REMARK   63  A    between atoms: _143  and  _144
REMARK   64  A    between atoms: _143  and  _146
REMARK   65  A    between atoms: _146  and  _147
REMARK   66  A    between atoms: _150  and  _152
REMARK   67  A    between atoms: _152  and  _153
REMARK   68  A    between atoms: _155  and  _157
REMARK   69  A    between atoms: _157  and  _158
REMARK   70  A    between atoms: _160  and  _162
REMARK   71  A    between atoms: _162  and  _163
REMARK   72  A    between atoms: _162  and  _165
REMARK   73  A    between atoms: _165  and  _166
REMARK   74  A    between atoms: _169  and  _171
REMARK   75  A    between atoms: _171  and  _172
REMARK   76  A    between atoms: _174  and  _176
REMARK   77  A    between atoms: _176  and  _177
REMARK   78  A    between atoms: _179  and  _181
REMARK   79  A    between atoms: _181  and  _182
REMARK   80  A    between atoms: _181  and  _184
REMARK   81  A    between atoms: _184  and  _185
REMARK   82  A    between atoms: _191  and  _193
REMARK   83  A    between atoms: _193  and  _194
REMARK   84  A    between atoms: _193  and  _196
REMARK   85  A    between atoms: _196  and  _197
REMARK   86  A    between atoms: _200  and  _202
REMARK   87  A    between atoms: _202  and  _203
REMARK   88  A    between atoms: _202  and  _205
REMARK   89  A    between atoms: _208  and  _210
REMARK   90  A    between atoms: _210  and  _211
REMARK   91  A    between atoms: _210  and  _213
REMARK   92  A    between atoms: _213  and  _214
REMARK   93  A    between atoms: _218  and  _219
REMARK   94  A    between atoms: _224  and  _226
REMARK   95  A    between atoms: _226  and  _227
REMARK   96  A    between atoms: _226  and  _229
REMARK   97  A    between atoms: _229  and  _230
REMARK   98  A    between atoms: _234  and  _235
REMARK   99  A    between atoms: _240  and  _242
REMARK  100  A    between atoms: _242  and  _243
REMARK  101  A    between atoms: _242  and  _245
REMARK  102  A    between atoms: _248  and  _250
REMARK  103  A    between atoms: _250  and  _251
REMARK  104  A    between atoms: _250  and  _253
REMARK  105  A    between atoms: _253  and  _254
REMARK  106  A    between atoms: _259  and  _261
REMARK  107  A    between atoms: _261  and  _262
REMARK  108  A    between atoms: _261  and  _264
REMARK  109  A    between atoms: _267  and  _269
REMARK  110  A    between atoms: _269  and  _270
REMARK  111  A    between atoms: _269  and  _272
REMARK  112  A    between atoms: _272  and  _273
REMARK  113  A    between atoms: _276  and  _278
REMARK  114  A    between atoms: _278  and  _279
REMARK  115  A    between atoms: _281  and  _283
REMARK  116  A    between atoms: _283  and  _284
REMARK  117  A    between atoms: _283  and  _286
REMARK  118  A    between atoms: _287  and  _288
REMARK  119  A    between atoms: _288  and  _289
REMARK  120  A    between atoms: _298  and  _300
REMARK  121  A    between atoms: _300  and  _301
REMARK  122  A    between atoms: _300  and  _303
REMARK  123  A    between atoms: _303  and  _304
REMARK  124  A    between atoms: _309  and  _311
REMARK  125  A    between atoms: _311  and  _312
REMARK  126  A    between atoms: _311  and  _314
REMARK  127  A    between atoms: _314  and  _315
REMARK  128  A    between atoms: _315  and  _316
REMARK  129  A    between atoms: _316  and  _317
REMARK  130  A    between atoms: _326  and  _328
REMARK  131  A    between atoms: _328  and  _329
REMARK  132  A    between atoms: _328  and  _331
REMARK  133  A    between atoms: _331  and  _332
REMARK  134  A    between atoms: _335  and  _337
REMARK  135  A    between atoms: _337  and  _338
REMARK  136  A    between atoms: _337  and  _340
REMARK  137  A    between atoms: _340  and  _341
REMARK  138  A    between atoms: _344  and  _346
REMARK  139  A    between atoms: _346  and  _347
REMARK  140  A    between atoms: _346  and  _349
REMARK  141  A    between atoms: _349  and  _350
REMARK  142  A    between atoms: _353  and  _355
REMARK  143  A    between atoms: _355  and  _356
REMARK  144  A    between atoms: _355  and  _358
REMARK  145  A    between atoms: _358  and  _359
REMARK  146  A    between atoms: _362  and  _364
REMARK  147  A    between atoms: _364  and  _365
REMARK  148  A    between atoms: _367  and  _369
REMARK  149  A    between atoms: _369  and  _370
REMARK  150  A    between atoms: _373  and  _375
REMARK  151  A    between atoms: _375  and  _376
REMARK  152  A    between atoms: _375  and  _378
REMARK  153  A    between atoms: _378  and  _379
REMARK  154  A    between atoms: _382  and  _384
REMARK  155  A    between atoms: _384  and  _385
REMARK  156  A    between atoms: _384  and  _387
REMARK  157  A    between atoms: _387  and  _388
REMARK  158  A    between atoms: _391  and  _393
REMARK  159  A    between atoms: _393  and  _394
REMARK  160  A    between atoms: _393  and  _396
REMARK  161  A    between atoms: _396  and  _397
REMARK  162  A    between atoms: _400  and  _402
REMARK  163  A    between atoms: _402  and  _403
REMARK  164  A    between atoms: _402  and  _405
REMARK  165  A    between atoms: _408  and  _410
REMARK  166  A    between atoms: _410  and  _411
REMARK  167  A    between atoms: _410  and  _413
REMARK  168  A    between atoms: _413  and  _414
REMARK  169  A    between atoms: _414  and  _415
REMARK  170  A    between atoms: _415  and  _416
REMARK  171  A    between atoms: _416  and  _417
REMARK  172  A    between atoms: _421  and  _423
REMARK  173  A    between atoms: _423  and  _424
REMARK  174  A    between atoms: _423  and  _426
REMARK  175  A    between atoms: _426  and  _427
REMARK  176  A    between atoms: _427  and  _428
REMARK  177  A    between atoms: _430  and  _432
REMARK  178  A    between atoms: _432  and  _433
REMARK  179  A    between atoms: _432  and  _435
REMARK  180  A    between atoms: _435  and  _436
REMARK  181  A    between atoms: _439  and  _441
REMARK  182  A    between atoms: _441  and  _442
REMARK  183  A    between atoms: _444  and  _446
REMARK  184  A    between atoms: _446  and  _447
REMARK  185  A    between atoms: _449  and  _451
REMARK  186  A    between atoms: _451  and  _452
REMARK  187  A    between atoms: _451  and  _454
REMARK  188  A    between atoms: _454  and  _455
REMARK  189  A    between atoms: _458  and  _460
REMARK  190  A    between atoms: _460  and  _461
REMARK  191  A    between atoms: _463  and  _465
REMARK  192  A    between atoms: _465  and  _466
REMARK  193  A    between atoms: _468  and  _470
REMARK  194  A    between atoms: _470  and  _471
REMARK  195  A    between atoms: _470  and  _473
REMARK  196  A    between atoms: _473  and  _474
REMARK  197  A    between atoms: _480  and  _482
REMARK  198  A    between atoms: _482  and  _483
REMARK  199  A    between atoms: _482  and  _485
REMARK  200  A    between atoms: _485  and  _486
REMARK  201  A    between atoms: _489  and  _491
REMARK  202  A    between atoms: _491  and  _492
REMARK  203  A    between atoms: _491  and  _494
REMARK  204  A    between atoms: _497  and  _499
REMARK  205  A    between atoms: _499  and  _500
REMARK  206  A    between atoms: _499  and  _502
REMARK  207  A    between atoms: _502  and  _503
REMARK  208  A    between atoms: _507  and  _508
REMARK  209  A    between atoms: _513  and  _515
REMARK  210  A    between atoms: _515  and  _516
REMARK  211  A    between atoms: _515  and  _518
REMARK  212  A    between atoms: _518  and  _519
REMARK  213  A    between atoms: _523  and  _524
REMARK  214  A    between atoms: _529  and  _531
REMARK  215  A    between atoms: _531  and  _532
REMARK  216  A    between atoms: _531  and  _534
REMARK  217  A    between atoms: _537  and  _539
REMARK  218  A    between atoms: _539  and  _540
REMARK  219  A    between atoms: _539  and  _542
REMARK  220  A    between atoms: _542  and  _543
REMARK  221  A    between atoms: _548  and  _550
REMARK  222  A    between atoms: _550  and  _551
REMARK  223  A    between atoms: _550  and  _553
REMARK  224  A    between atoms: _556  and  _558
REMARK  225  A    between atoms: _558  and  _559
REMARK  226  A    between atoms: _558  and  _561
REMARK  227  A    between atoms: _561  and  _562
REMARK  228  A    between atoms: _565  and  _567
REMARK  229  A    between atoms: _567  and  _568
REMARK  230  A    between atoms: _570  and  _572
REMARK  231  A    between atoms: _572  and  _573
REMARK  232  A    between atoms: _572  and  _575
REMARK  233  A    between atoms: _575  and  _576
REMARK  234  A    between atoms: _576  and  _577
REMARK  235  A    between atoms: _577  and  _578
REMARK  236  A    between atoms: _587  and  _589
REMARK  237  A    between atoms: _589  and  _590
REMARK  238  A    between atoms: _589  and  _592
REMARK  239  A    between atoms: _592  and  _593
REMARK                            x       y       z     vdW  Elec       q    Type
REMARK                         _______ _______ _______ _____ _____    ______ ____
ROOT
ATOM      1  O   HOH     1      30.182  30.762  14.591  0.00  0.00    +0.000 OA
ENDROOT
TORSDOF 0
REMARK  Name = ../refined-set-2016/2aoc/2aoc_pocket.pdb
REMARK  239 active torsions:
REMARK  status: ('A' for Active; 'I' for Inactive)
REMARK    1  A    between atoms: _1  and  _3
REMARK    2  A    between atoms: _3  and  _4
REMARK    3  A    between atoms: _3  and  _6
REMARK    4  A    between atoms: _6  and  _7
REMARK    5  A    between atoms: _7  and  _8
REMARK    6  A    between atoms: _8  and  _9
REMARK    7  A    between atoms: _18  and  _20
REMARK    8  A    between atoms: _20  and  _21
REMARK    9  A    between atoms: _20  and  _23
REMARK   10  A    between atoms: _23  and  _24
REMARK   11  A    between atoms: _27  and  _29
REMARK   12  A    between atoms: _29  and  _30
REMARK   13  A    between atoms: _29  and  _32
REMARK   14  A    between atoms: _33  and  _34
REMARK   15  A    between atoms: _37  and  _39
REMARK   16  A    between atoms: _39  and  _40
REMARK   17  A    between atoms: _39  and  _42
REMARK   18  A    between atoms: _42  and  _43
REMARK   19  A    between atoms: _46  and  _48
REMARK   20  A    between atoms: _48  and  _49
REMARK   21  A    between atoms: _48  and  _51
REMARK   22  A    between atoms: _51  and  _52
REMARK   23  A    between atoms: _55  and  _57
REMARK   24  A    between atoms: _57  and  _58
REMARK   25  A    between atoms: _57  and  _60
REMARK   26  A    between atoms: _60  and  _61
REMARK   27  A    between atoms: _64  and  _66
REMARK   28  A    between atoms: _66  and  _67
REMARK   29  A    between atoms: _66  and  _69
REMARK   30  A    between atoms: _69  and  _70
REMARK   31  A    between atoms: _73  and  _75
REMARK   32  A    between atoms: _75  and  _76
REMARK   33  A    between atoms: _78  and  _80
REMARK   34  A    between atoms: _80  and  _81
REMARK   35  A    between atoms: _84  and  _86
REMARK   36  A    between atoms: _86  and  _87
REMARK   37  A    between atoms: _86  and  _89
REMARK   38  A    between atoms: _89  and  _90
REMARK   39  A    between atoms: _93  and  _95
REMARK   40  A    between atoms: _95  and  _96
REMARK   41  A    between atoms: _95  and  _98
REMARK   42  A    between atoms: _98  and  _99
REMARK   43  A    between atoms: _102  and  _104
REMARK   44  A    between atoms: _104  and  _105
REMARK   45  A    between atoms: _104  and  _107
REMARK   46  A    between atoms: _107  and  _108
REMARK   47  A    between atoms: _111  and  _113
REMARK   48  A    between atoms: _113  and  _114
REMARK   49  A    between atoms: _113  and  _116
REMARK   50  A    between atoms: _119  and  _121
REMARK   51  A    between atoms: _121  and  _122
REMARK   52  A    between atoms: _121  and  _124
REMARK   53  A    between atoms: _124  and  _125
REMARK   54  A    between atoms: _125  and  _126
REMARK   55  A    between atoms: _126  and  _127
REMARK   56  A    between atoms: _127  and  _128
REMARK   57  A    between atoms: _132  and  _134
REMARK   58  A    between atoms: _134  and  _135
REMARK   59  A    between atoms: _134  and  _137
REMARK   60  A    between atoms: _137  and  _138
REMARK   61  A    between atoms: _138  and  _139
REMARK   62  A    between atoms: _141  and  _143
REMARK   63  A    between atoms: _143  and  _144
REMARK   64  A    between atoms: _143  and  _146
REMARK   65  A    between atoms: _146  and  _147
REMARK   66  A    between atoms: _150  and  _152
REMARK   67  A    between atoms: _152  and  _153
REMARK   68  A    between atoms: _155  and  _157
REMARK   69  A    between atoms: _157  and  _158
REMARK   70  A    between atoms: _160  and  _162
REMARK   71  A    between atoms: _162  and  _163
REMARK   72  A    between atoms: _162  and  _165
REMARK   73  A    between atoms: _165  and  _166
REMARK   74  A    between atoms: _169  and  _171
REMARK   75  A    between atoms: _171  and  _172
REMARK   76  A    between atoms: _174  and  _176
REMARK   77  A    between atoms: _176  and  _177
REMARK   78  A    between atoms: _179  and  _181
REMARK   79  A    between atoms: _181  and  _182
REMARK   80  A    between atoms: _181  and  _184
REMARK   81  A    between atoms: _184  and  _185
REMARK   82  A    between atoms: _191  and  _193
REMARK   83  A    between atoms: _193  and  _194
REMARK   84  A    between atoms: _193  and  _196
REMARK   85  A    between atoms: _196  and  _197
REMARK   86  A    between atoms: _200  and  _202
REMARK   87  A    between atoms: _202  and  _203
REMARK   88  A    between atoms: _202  and  _205
REMARK   89  A    between atoms: _208  and  _210
REMARK   90  A    between atoms: _210  and  _211
REMARK   91  A    between atoms: _210  and  _213
REMARK   92  A    between atoms: _213  and  _214
REMARK   93  A    between atoms: _218  and  _219
REMARK   94  A    between atoms: _224  and  _226
REMARK   95  A    between atoms: _226  and  _227
REMARK   96  A    between atoms: _226  and  _229
REMARK   97  A    between atoms: _229  and  _230
REMARK   98  A    between atoms: _234  and  _235
REMARK   99  A    between atoms: _240  and  _242
REMARK  100  A    between atoms: _242  and  _243
REMARK  101  A    between atoms: _242  and  _245
REMARK  102  A    between atoms: _248  and  _250
REMARK  103  A    between atoms: _250  and  _251
REMARK  104  A    between atoms: _250  and  _253
REMARK  105  A    between atoms: _253  and  _254
REMARK  106  A    between atoms: _259  and  _261
REMARK  107  A    between atoms: _261  and  _262
REMARK  108  A    between atoms: _261  and  _264
REMARK  109  A    between atoms: _267  and  _269
REMARK  110  A    between atoms: _269  and  _270
REMARK  111  A    between atoms: _269  and  _272
REMARK  112  A    between atoms: _272  and  _273
REMARK  113  A    between atoms: _276  and  _278
REMARK  114  A    between atoms: _278  and  _279
REMARK  115  A    between atoms: _281  and  _283
REMARK  116  A    between atoms: _283  and  _284
REMARK  117  A    between atoms: _283  and  _286
REMARK  118  A    between atoms: _287  and  _288
REMARK  119  A    between atoms: _288  and  _289
REMARK  120  A    between atoms: _298  and  _300
REMARK  121  A    between atoms: _300  and  _301
REMARK  122  A    between atoms: _300  and  _303
REMARK  123  A    between atoms: _303  and  _304
REMARK  124  A    between atoms: _309  and  _311
REMARK  125  A    between atoms: _311  and  _312
REMARK  126  A    between atoms: _311  and  _314
REMARK  127  A    between atoms: _314  and  _315
REMARK  128  A    between atoms: _315  and  _316
REMARK  129  A    between atoms: _316  and  _317
REMARK  130  A    between atoms: _326  and  _328
REMARK  131  A    between atoms: _328  and  _329
REMARK  132  A    between atoms: _328  and  _331
REMARK  133  A    between atoms: _331  and  _332
REMARK  134  A    between atoms: _335  and  _337
REMARK  135  A    between atoms: _337  and  _338
REMARK  136  A    between atoms: _337  and  _340
REMARK  137  A    between atoms: _340  and  _341
REMARK  138  A    between atoms: _344  and  _346
REMARK  139  A    between atoms: _346  and  _347
REMARK  140  A    between atoms: _346  and  _349
REMARK  141  A    between atoms: _349  and  _350
REMARK  142  A    between atoms: _353  and  _355
REMARK  143  A    between atoms: _355  and  _356
REMARK  144  A    between atoms: _355  and  _358
REMARK  145  A    between atoms: _358  and  _359
REMARK  146  A    between atoms: _362  and  _364
REMARK  147  A    between atoms: _364  and  _365
REMARK  148  A    between atoms: _367  and  _369
REMARK  149  A    between atoms: _369  and  _370
REMARK  150  A    between atoms: _373  and  _375
REMARK  151  A    between atoms: _375  and  _376
REMARK  152  A    between atoms: _375  and  _378
REMARK  153  A    between atoms: _378  and  _379
REMARK  154  A    between atoms: _382  and  _384
REMARK  155  A    between atoms: _384  and  _385
REMARK  156  A    between atoms: _384  and  _387
REMARK  157  A    between atoms: _387  and  _388
REMARK  158  A    between atoms: _391  and  _393
REMARK  159  A    between atoms: _393  and  _394
REMARK  160  A    between atoms: _393  and  _396
REMARK  161  A    between atoms: _396  and  _397
REMARK  162  A    between atoms: _400  and  _402
REMARK  163  A    between atoms: _402  and  _403
REMARK  164  A    between atoms: _402  and  _405
REMARK  165  A    between atoms: _408  and  _410
REMARK  166  A    between atoms: _410  and  _411
REMARK  167  A    between atoms: _410  and  _413
REMARK  168  A    between atoms: _413  and  _414
REMARK  169  A    between atoms: _414  and  _415
REMARK  170  A    between atoms: _415  and  _416
REMARK  171  A    between atoms: _416  and  _417
REMARK  172  A    between atoms: _421  and  _423
REMARK  173  A    between atoms: _423  and  _424
REMARK  174  A    between atoms: _423  and  _426
REMARK  175  A    between atoms: _426  and  _427
REMARK  176  A    between atoms: _427  and  _428
REMARK  177  A    between atoms: _430  and  _432
REMARK  178  A    between atoms: _432  and  _433
REMARK  179  A    between atoms: _432  and  _435
REMARK  180  A    between atoms: _435  and  _436
REMARK  181  A    between atoms: _439  and  _441
REMARK  182  A    between atoms: _441  and  _442
REMARK  183  A    between atoms: _444  and  _446
REMARK  184  A    between atoms: _446  and  _447
REMARK  185  A    between atoms: _449  and  _451
REMARK  186  A    between atoms: _451  and  _452
REMARK  187  A    between atoms: _451  and  _454
REMARK  188  A    between atoms: _454  and  _455
REMARK  189  A    between atoms: _458  and  _460
REMARK  190  A    between atoms: _460  and  _461
REMARK  191  A    between atoms: _463  and  _465
REMARK  192  A    between atoms: _465  and  _466
REMARK  193  A    between atoms: _468  and  _470
REMARK  194  A    between atoms: _470  and  _471
REMARK  195  A    between atoms: _470  and  _473
REMARK  196  A    between atoms: _473  and  _474
REMARK  197  A    between atoms: _480  and  _482
REMARK  198  A    between atoms: _482  and  _483
REMARK  199  A    between atoms: _482  and  _485
REMARK  200  A    between atoms: _485  and  _486
REMARK  201  A    between atoms: _489  and  _491
REMARK  202  A    between atoms: _491  and  _492
REMARK  203  A    between atoms: _491  and  _494
REMARK  204  A    between atoms: _497  and  _499
REMARK  205  A    between atoms: _499  and  _500
REMARK  206  A    between atoms: _499  and  _502
REMARK  207  A    between atoms: _502  and  _503
REMARK  208  A    between atoms: _507  and  _508
REMARK  209  A    between atoms: _513  and  _515
REMARK  210  A    between atoms: _515  and  _516
REMARK  211  A    between atoms: _515  and  _518
REMARK  212  A    between atoms: _518  and  _519
REMARK  213  A    between atoms: _523  and  _524
REMARK  214  A    between atoms: _529  and  _531
REMARK  215  A    between atoms: _531  and  _532
REMARK  216  A    between atoms: _531  and  _534
REMARK  217  A    between atoms: _537  and  _539
REMARK  218  A    between atoms: _539  and  _540
REMARK  219  A    between atoms: _539  and  _542
REMARK  220  A    between atoms: _542  and  _543
REMARK  221  A    between atoms: _548  and  _550
REMARK  222  A    between atoms: _550  and  _551
REMARK  223  A    between atoms: _550  and  _553
REMARK  224  A    between atoms: _556  and  _558
REMARK  225  A    between atoms: _558  and  _559
REMARK  226  A    between atoms: _558  and  _561
REMARK  227  A    between atoms: _561  and  _562
REMARK  228  A    between atoms: _565  and  _567
REMARK  229  A    between atoms: _567  and  _568
REMARK  230  A    between atoms: _570  and  _572
REMARK  231  A    between atoms: _572  and  _573
REMARK  232  A    between atoms: _572  and  _575
REMARK  233  A    between atoms: _575  and  _576
REMARK  234  A    between atoms: _576  and  _577
REMARK  235  A    between atoms: _577  and  _578
REMARK  236  A    between atoms: _587  and  _589
REMARK  237  A    between atoms: _589  and  _590
REMARK  238  A    between atoms: _589  and  _592
REMARK  239  A    between atoms: _592  and  _593
REMARK                            x       y       z     vdW  Elec       q    Type
REMARK                         _______ _______ _______ _____ _____    ______ ____
ROOT
ATOM      1  O   HOH     1       7.059  23.189   8.940  0.00  0.00    +0.000 OA
ENDROOT
TORSDOF 0
REMARK  Name = ../refined-set-2016/2aoc/2aoc_pocket.pdb
REMARK  239 active torsions:
REMARK  status: ('A' for Active; 'I' for Inactive)
REMARK    1  A    between atoms: _1  and  _3
REMARK    2  A    between atoms: _3  and  _4
REMARK    3  A    between atoms: _3  and  _6
REMARK    4  A    between atoms: _6  and  _7
REMARK    5  A    between atoms: _7  and  _8
REMARK    6  A    between atoms: _8  and  _9
REMARK    7  A    between atoms: _18  and  _20
REMARK    8  A    between atoms: _20  and  _21
REMARK    9  A    between atoms: _20  and  _23
REMARK   10  A    between atoms: _23  and  _24
REMARK   11  A    between atoms: _27  and  _29
REMARK   12  A    between atoms: _29  and  _30
REMARK   13  A    between atoms: _29  and  _32
REMARK   14  A    between atoms: _33  and  _34
REMARK   15  A    between atoms: _37  and  _39
REMARK   16  A    between atoms: _39  and  _40
REMARK   17  A    between atoms: _39  and  _42
REMARK   18  A    between atoms: _42  and  _43
REMARK   19  A    between atoms: _46  and  _48
REMARK   20  A    between atoms: _48  and  _49
REMARK   21  A    between atoms: _48  and  _51
REMARK   22  A    between atoms: _51  and  _52
REMARK   23  A    between atoms: _55  and  _57
REMARK   24  A    between atoms: _57  and  _58
REMARK   25  A    between atoms: _57  and  _60
REMARK   26  A    between atoms: _60  and  _61
REMARK   27  A    between atoms: _64  and  _66
REMARK   28  A    between atoms: _66  and  _67
REMARK   29  A    between atoms: _66  and  _69
REMARK   30  A    between atoms: _69  and  _70
REMARK   31  A    between atoms: _73  and  _75
REMARK   32  A    between atoms: _75  and  _76
REMARK   33  A    between atoms: _78  and  _80
REMARK   34  A    between atoms: _80  and  _81
REMARK   35  A    between atoms: _84  and  _86
REMARK   36  A    between atoms: _86  and  _87
REMARK   37  A    between atoms: _86  and  _89
REMARK   38  A    between atoms: _89  and  _90
REMARK   39  A    between atoms: _93  and  _95
REMARK   40  A    between atoms: _95  and  _96
REMARK   41  A    between atoms: _95  and  _98
REMARK   42  A    between atoms: _98  and  _99
REMARK   43  A    between atoms: _102  and  _104
REMARK   44  A    between atoms: _104  and  _105
REMARK   45  A    between atoms: _104  and  _107
REMARK   46  A    between atoms: _107  and  _108
REMARK   47  A    between atoms: _111  and  _113
REMARK   48  A    between atoms: _113  and  _114
REMARK   49  A    between atoms: _113  and  _116
REMARK   50  A    between atoms: _119  and  _121
REMARK   51  A    between atoms: _121  and  _122
REMARK   52  A    between atoms: _121  and  _124
REMARK   53  A    between atoms: _124  and  _125
REMARK   54  A    between atoms: _125  and  _126
REMARK   55  A    between atoms: _126  and  _127
REMARK   56  A    between atoms: _127  and  _128
REMARK   57  A    between atoms: _132  and  _134
REMARK   58  A    between atoms: _134  and  _135
REMARK   59  A    between atoms: _134  and  _137
REMARK   60  A    between atoms: _137  and  _138
REMARK   61  A    between atoms: _138  and  _139
REMARK   62  A    between atoms: _141  and  _143
REMARK   63  A    between atoms: _143  and  _144
REMARK   64  A    between atoms: _143  and  _146
REMARK   65  A    between atoms: _146  and  _147
REMARK   66  A    between atoms: _150  and  _152
REMARK   67  A    between atoms: _152  and  _153
REMARK   68  A    between atoms: _155  and  _157
REMARK   69  A    between atoms: _157  and  _158
REMARK   70  A    between atoms: _160  and  _162
REMARK   71  A    between atoms: _162  and  _163
REMARK   72  A    between atoms: _162  and  _165
REMARK   73  A    between atoms: _165  and  _166
REMARK   74  A    between atoms: _169  and  _171
REMARK   75  A    between atoms: _171  and  _172
REMARK   76  A    between atoms: _174  and  _176
REMARK   77  A    between atoms: _176  and  _177
REMARK   78  A    between atoms: _179  and  _181
REMARK   79  A    between atoms: _181  and  _182
REMARK   80  A    between atoms: _181  and  _184
REMARK   81  A    between atoms: _184  and  _185
REMARK   82  A    between atoms: _191  and  _193
REMARK   83  A    between atoms: _193  and  _194
REMARK   84  A    between atoms: _193  and  _196
REMARK   85  A    between atoms: _196  and  _197
REMARK   86  A    between atoms: _200  and  _202
REMARK   87  A    between atoms: _202  and  _203
REMARK   88  A    between atoms: _202  and  _205
REMARK   89  A    between atoms: _208  and  _210
REMARK   90  A    between atoms: _210  and  _211
REMARK   91  A    between atoms: _210  and  _213
REMARK   92  A    between atoms: _213  and  _214
REMARK   93  A    between atoms: _218  and  _219
REMARK   94  A    between atoms: _224  and  _226
REMARK   95  A    between atoms: _226  and  _227
REMARK   96  A    between atoms: _226  and  _229
REMARK   97  A    between atoms: _229  and  _230
REMARK   98  A    between atoms: _234  and  _235
REMARK   99  A    between atoms: _240  and  _242
REMARK  100  A    between atoms: _242  and  _243
REMARK  101  A    between atoms: _242  and  _245
REMARK  102  A    between atoms: _248  and  _250
REMARK  103  A    between atoms: _250  and  _251
REMARK  104  A    between atoms: _250  and  _253
REMARK  105  A    between atoms: _253  and  _254
REMARK  106  A    between atoms: _259  and  _261
REMARK  107  A    between atoms: _261  and  _262
REMARK  108  A    between atoms: _261  and  _264
REMARK  109  A    between atoms: _267  and  _269
REMARK  110  A    between atoms: _269  and  _270
REMARK  111  A    between atoms: _269  and  _272
REMARK  112  A    between atoms: _272  and  _273
REMARK  113  A    between atoms: _276  and  _278
REMARK  114  A    between atoms: _278  and  _279
REMARK  115  A    between atoms: _281  and  _283
REMARK  116  A    between atoms: _283  and  _284
REMARK  117  A    between atoms: _283  and  _286
REMARK  118  A    between atoms: _287  and  _288
REMARK  119  A    between atoms: _288  and  _289
REMARK  120  A    between atoms: _298  and  _300
REMARK  121  A    between atoms: _300  and  _301
REMARK  122  A    between atoms: _300  and  _303
REMARK  123  A    between atoms: _303  and  _304
REMARK  124  A    between atoms: _309  and  _311
REMARK  125  A    between atoms: _311  and  _312
REMARK  126  A    between atoms: _311  and  _314
REMARK  127  A    between atoms: _314  and  _315
REMARK  128  A    between atoms: _315  and  _316
REMARK  129  A    between atoms: _316  and  _317
REMARK  130  A    between atoms: _326  and  _328
REMARK  131  A    between atoms: _328  and  _329
REMARK  132  A    between atoms: _328  and  _331
REMARK  133  A    between atoms: _331  and  _332
REMARK  134  A    between atoms: _335  and  _337
REMARK  135  A    between atoms: _337  and  _338
REMARK  136  A    between atoms: _337  and  _340
REMARK  137  A    between atoms: _340  and  _341
REMARK  138  A    between atoms: _344  and  _346
REMARK  139  A    between atoms: _346  and  _347
REMARK  140  A    between atoms: _346  and  _349
REMARK  141  A    between atoms: _349  and  _350
REMARK  142  A    between atoms: _353  and  _355
REMARK  143  A    between atoms: _355  and  _356
REMARK  144  A    between atoms: _355  and  _358
REMARK  145  A    between atoms: _358  and  _359
REMARK  146  A    between atoms: _362  and  _364
REMARK  147  A    between atoms: _364  and  _365
REMARK  148  A    between atoms: _367  and  _369
REMARK  149  A    between atoms: _369  and  _370
REMARK  150  A    between atoms: _373  and  _375
REMARK  151  A    between atoms: _375  and  _376
REMARK  152  A    between atoms: _375  and  _378
REMARK  153  A    between atoms: _378  and  _379
REMARK  154  A    between atoms: _382  and  _384
REMARK  155  A    between atoms: _384  and  _385
REMARK  156  A    between atoms: _384  and  _387
REMARK  157  A    between atoms: _387  and  _388
REMARK  158  A    between atoms: _391  and  _393
REMARK  159  A    between atoms: _393  and  _394
REMARK  160  A    between atoms: _393  and  _396
REMARK  161  A    between atoms: _396  and  _397
REMARK  162  A    between atoms: _400  and  _402
REMARK  163  A    between atoms: _402  and  _403
REMARK  164  A    between atoms: _402  and  _405
REMARK  165  A    between atoms: _408  and  _410
REMARK  166  A    between atoms: _410  and  _411
REMARK  167  A    between atoms: _410  and  _413
REMARK  168  A    between atoms: _413  and  _414
REMARK  169  A    between atoms: _414  and  _415
REMARK  170  A    between atoms: _415  and  _416
REMARK  171  A    between atoms: _416  and  _417
REMARK  172  A    between atoms: _421  and  _423
REMARK  173  A    between atoms: _423  and  _424
REMARK  174  A    between atoms: _423  and  _426
REMARK  175  A    between atoms: _426  and  _427
REMARK  176  A    between atoms: _427  and  _428
REMARK  177  A    between atoms: _430  and  _432
REMARK  178  A    between atoms: _432  and  _433
REMARK  179  A    between atoms: _432  and  _435
REMARK  180  A    between atoms: _435  and  _436
REMARK  181  A    between atoms: _439  and  _441
REMARK  182  A    between atoms: _441  and  _442
REMARK  183  A    between atoms: _444  and  _446
REMARK  184  A    between atoms: _446  and  _447
REMARK  185  A    between atoms: _449  and  _451
REMARK  186  A    between atoms: _451  and  _452
REMARK  187  A    between atoms: _451  and  _454
REMARK  188  A    between atoms: _454  and  _455
REMARK  189  A    between atoms: _458  and  _460
REMARK  190  A    between atoms: _460  and  _461
REMARK  191  A    between atoms: _463  and  _465
REMARK  192  A    between atoms: _465  and  _466
REMARK  193  A    between atoms: _468  and  _470
REMARK  194  A    between atoms: _470  and  _471
REMARK  195  A    between atoms: _470  and  _473
REMARK  196  A    between atoms: _473  and  _474
REMARK  197  A    between atoms: _480  and  _482
REMARK  198  A    between atoms: _482  and  _483
REMARK  199  A    between atoms: _482  and  _485
REMARK  200  A    between atoms: _485  and  _486
REMARK  201  A    between atoms: _489  and  _491
REMARK  202  A    between atoms: _491  and  _492
REMARK  203  A    between atoms: _491  and  _494
REMARK  204  A    between atoms: _497  and  _499
REMARK  205  A    between atoms: _499  and  _500
REMARK  206  A    between atoms: _499  and  _502
REMARK  207  A    between atoms: _502  and  _503
REMARK  208  A    between atoms: _507  and  _508
REMARK  209  A    between atoms: _513  and  _515
REMARK  210  A    between atoms: _515  and  _516
REMARK  211  A    between atoms: _515  and  _518
REMARK  212  A    between atoms: _518  and  _519
REMARK  213  A    between atoms: _523  and  _524
REMARK  214  A    between atoms: _529  and  _531
REMARK  215  A    between atoms: _531  and  _532
REMARK  216  A    between atoms: _531  and  _534
REMARK  217  A    between atoms: _537  and  _539
REMARK  218  A    between atoms: _539  and  _540
REMARK  219  A    between atoms: _539  and  _542
REMARK  220  A    between atoms: _542  and  _543
REMARK  221  A    between atoms: _548  and  _550
REMARK  222  A    between atoms: _550  and  _551
REMARK  223  A    between atoms: _550  and  _553
REMARK  224  A    between atoms: _556  and  _558
REMARK  225  A    between atoms: _558  and  _559
REMARK  226  A    between atoms: _558  and  _561
REMARK  227  A    between atoms: _561  and  _562
REMARK  228  A    between atoms: _565  and  _567
REMARK  229  A    between atoms: _567  and  _568
REMARK  230  A    between atoms: _570  and  _572
REMARK  231  A    between atoms: _572  and  _573
REMARK  232  A    between atoms: _572  and  _575
REMARK  233  A    between atoms: _575  and  _576
REMARK  234  A    between atoms: _576  and  _577
REMARK  235  A    between atoms: _577  and  _578
REMARK  236  A    between atoms: _587  and  _589
REMARK  237  A    between atoms: _589  and  _590
REMARK  238  A    between atoms: _589  and  _592
REMARK  239  A    between atoms: _592  and  _593
REMARK                            x       y       z     vdW  Elec       q    Type
REMARK                         _______ _______ _______ _____ _____    ______ ____
ROOT
ATOM      1  O   HOH     1       6.579  15.519  14.050  0.00  0.00    +0.000 OA
ENDROOT
TORSDOF 0
REMARK  Name = ../refined-set-2016/2aoc/2aoc_pocket.pdb
REMARK  239 active torsions:
REMARK  status: ('A' for Active; 'I' for Inactive)
REMARK    1  A    between atoms: _1  and  _3
REMARK    2  A    between atoms: _3  and  _4
REMARK    3  A    between atoms: _3  and  _6
REMARK    4  A    between atoms: _6  and  _7
REMARK    5  A    between atoms: _7  and  _8
REMARK    6  A    between atoms: _8  and  _9
REMARK    7  A    between atoms: _18  and  _20
REMARK    8  A    between atoms: _20  and  _21
REMARK    9  A    between atoms: _20  and  _23
REMARK   10  A    between atoms: _23  and  _24
REMARK   11  A    between atoms: _27  and  _29
REMARK   12  A    between atoms: _29  and  _30
REMARK   13  A    between atoms: _29  and  _32
REMARK   14  A    between atoms: _33  and  _34
REMARK   15  A    between atoms: _37  and  _39
REMARK   16  A    between atoms: _39  and  _40
REMARK   17  A    between atoms: _39  and  _42
REMARK   18  A    between atoms: _42  and  _43
REMARK   19  A    between atoms: _46  and  _48
REMARK   20  A    between atoms: _48  and  _49
REMARK   21  A    between atoms: _48  and  _51
REMARK   22  A    between atoms: _51  and  _52
REMARK   23  A    between atoms: _55  and  _57
REMARK   24  A    between atoms: _57  and  _58
REMARK   25  A    between atoms: _57  and  _60
REMARK   26  A    between atoms: _60  and  _61
REMARK   27  A    between atoms: _64  and  _66
REMARK   28  A    between atoms: _66  and  _67
REMARK   29  A    between atoms: _66  and  _69
REMARK   30  A    between atoms: _69  and  _70
REMARK   31  A    between atoms: _73  and  _75
REMARK   32  A    between atoms: _75  and  _76
REMARK   33  A    between atoms: _78  and  _80
REMARK   34  A    between atoms: _80  and  _81
REMARK   35  A    between atoms: _84  and  _86
REMARK   36  A    between atoms: _86  and  _87
REMARK   37  A    between atoms: _86  and  _89
REMARK   38  A    between atoms: _89  and  _90
REMARK   39  A    between atoms: _93  and  _95
REMARK   40  A    between atoms: _95  and  _96
REMARK   41  A    between atoms: _95  and  _98
REMARK   42  A    between atoms: _98  and  _99
REMARK   43  A    between atoms: _102  and  _104
REMARK   44  A    between atoms: _104  and  _105
REMARK   45  A    between atoms: _104  and  _107
REMARK   46  A    between atoms: _107  and  _108
REMARK   47  A    between atoms: _111  and  _113
REMARK   48  A    between atoms: _113  and  _114
REMARK   49  A    between atoms: _113  and  _116
REMARK   50  A    between atoms: _119  and  _121
REMARK   51  A    between atoms: _121  and  _122
REMARK   52  A    between atoms: _121  and  _124
REMARK   53  A    between atoms: _124  and  _125
REMARK   54  A    between atoms: _125  and  _126
REMARK   55  A    between atoms: _126  and  _127
REMARK   56  A    between atoms: _127  and  _128
REMARK   57  A    between atoms: _132  and  _134
REMARK   58  A    between atoms: _134  and  _135
REMARK   59  A    between atoms: _134  and  _137
REMARK   60  A    between atoms: _137  and  _138
REMARK   61  A    between atoms: _138  and  _139
REMARK   62  A    between atoms: _141  and  _143
REMARK   63  A    between atoms: _143  and  _144
REMARK   64  A    between atoms: _143  and  _146
REMARK   65  A    between atoms: _146  and  _147
REMARK   66  A    between atoms: _150  and  _152
REMARK   67  A    between atoms: _152  and  _153
REMARK   68  A    between atoms: _155  and  _157
REMARK   69  A    between atoms: _157  and  _158
REMARK   70  A    between atoms: _160  and  _162
REMARK   71  A    between atoms: _162  and  _163
REMARK   72  A    between atoms: _162  and  _165
REMARK   73  A    between atoms: _165  and  _166
REMARK   74  A    between atoms: _169  and  _171
REMARK   75  A    between atoms: _171  and  _172
REMARK   76  A    between atoms: _174  and  _176
REMARK   77  A    between atoms: _176  and  _177
REMARK   78  A    between atoms: _179  and  _181
REMARK   79  A    between atoms: _181  and  _182
REMARK   80  A    between atoms: _181  and  _184
REMARK   81  A    between atoms: _184  and  _185
REMARK   82  A    between atoms: _191  and  _193
REMARK   83  A    between atoms: _193  and  _194
REMARK   84  A    between atoms: _193  and  _196
REMARK   85  A    between atoms: _196  and  _197
REMARK   86  A    between atoms: _200  and  _202
REMARK   87  A    between atoms: _202  and  _203
REMARK   88  A    between atoms: _202  and  _205
REMARK   89  A    between atoms: _208  and  _210
REMARK   90  A    between atoms: _210  and  _211
REMARK   91  A    between atoms: _210  and  _213
REMARK   92  A    between atoms: _213  and  _214
REMARK   93  A    between atoms: _218  and  _219
REMARK   94  A    between atoms: _224  and  _226
REMARK   95  A    between atoms: _226  and  _227
REMARK   96  A    between atoms: _226  and  _229
REMARK   97  A    between atoms: _229  and  _230
REMARK   98  A    between atoms: _234  and  _235
REMARK   99  A    between atoms: _240  and  _242
REMARK  100  A    between atoms: _242  and  _243
REMARK  101  A    between atoms: _242  and  _245
REMARK  102  A    between atoms: _248  and  _250
REMARK  103  A    between atoms: _250  and  _251
REMARK  104  A    between atoms: _250  and  _253
REMARK  105  A    between atoms: _253  and  _254
REMARK  106  A    between atoms: _259  and  _261
REMARK  107  A    between atoms: _261  and  _262
REMARK  108  A    between atoms: _261  and  _264
REMARK  109  A    between atoms: _267  and  _269
REMARK  110  A    between atoms: _269  and  _270
REMARK  111  A    between atoms: _269  and  _272
REMARK  112  A    between atoms: _272  and  _273
REMARK  113  A    between atoms: _276  and  _278
REMARK  114  A    between atoms: _278  and  _279
REMARK  115  A    between atoms: _281  and  _283
REMARK  116  A    between atoms: _283  and  _284
REMARK  117  A    between atoms: _283  and  _286
REMARK  118  A    between atoms: _287  and  _288
REMARK  119  A    between atoms: _288  and  _289
REMARK  120  A    between atoms: _298  and  _300
REMARK  121  A    between atoms: _300  and  _301
REMARK  122  A    between atoms: _300  and  _303
REMARK  123  A    between atoms: _303  and  _304
REMARK  124  A    between atoms: _309  and  _311
REMARK  125  A    between atoms: _311  and  _312
REMARK  126  A    between atoms: _311  and  _314
REMARK  127  A    between atoms: _314  and  _315
REMARK  128  A    between atoms: _315  and  _316
REMARK  129  A    between atoms: _316  and  _317
REMARK  130  A    between atoms: _326  and  _328
REMARK  131  A    between atoms: _328  and  _329
REMARK  132  A    between atoms: _328  and  _331
REMARK  133  A    between atoms: _331  and  _332
REMARK  134  A    between atoms: _335  and  _337
REMARK  135  A    between atoms: _337  and  _338
REMARK  136  A    between atoms: _337  and  _340
REMARK  137  A    between atoms: _340  and  _341
REMARK  138  A    between atoms: _344  and  _346
REMARK  139  A    between atoms: _346  and  _347
REMARK  140  A    between atoms: _346  and  _349
REMARK  141  A    between atoms: _349  and  _350
REMARK  142  A    between atoms: _353  and  _355
REMARK  143  A    between atoms: _355  and  _356
REMARK  144  A    between atoms: _355  and  _358
REMARK  145  A    between atoms: _358  and  _359
REMARK  146  A    between atoms: _362  and  _364
REMARK  147  A    between atoms: _364  and  _365
REMARK  148  A    between atoms: _367  and  _369
REMARK  149  A    between atoms: _369  and  _370
REMARK  150  A    between atoms: _373  and  _375
REMARK  151  A    between atoms: _375  and  _376
REMARK  152  A    between atoms: _375  and  _378
REMARK  153  A    between atoms: _378  and  _379
REMARK  154  A    between atoms: _382  and  _384
REMARK  155  A    between atoms: _384  and  _385
REMARK  156  A    between atoms: _384  and  _387
REMARK  157  A    between atoms: _387  and  _388
REMARK  158  A    between atoms: _391  and  _393
REMARK  159  A    between atoms: _393  and  _394
REMARK  160  A    between atoms: _393  and  _396
REMARK  161  A    between atoms: _396  and  _397
REMARK  162  A    between atoms: _400  and  _402
REMARK  163  A    between atoms: _402  and  _403
REMARK  164  A    between atoms: _402  and  _405
REMARK  165  A    between atoms: _408  and  _410
REMARK  166  A    between atoms: _410  and  _411
REMARK  167  A    between atoms: _410  and  _413
REMARK  168  A    between atoms: _413  and  _414
REMARK  169  A    between atoms: _414  and  _415
REMARK  170  A    between atoms: _415  and  _416
REMARK  171  A    between atoms: _416  and  _417
REMARK  172  A    between atoms: _421  and  _423
REMARK  173  A    between atoms: _423  and  _424
REMARK  174  A    between atoms: _423  and  _426
REMARK  175  A    between atoms: _426  and  _427
REMARK  176  A    between atoms: _427  and  _428
REMARK  177  A    between atoms: _430  and  _432
REMARK  178  A    between atoms: _432  and  _433
REMARK  179  A    between atoms: _432  and  _435
REMARK  180  A    between atoms: _435  and  _436
REMARK  181  A    between atoms: _439  and  _441
REMARK  182  A    between atoms: _441  and  _442
REMARK  183  A    between atoms: _444  and  _446
REMARK  184  A    between atoms: _446  and  _447
REMARK  185  A    between atoms: _449  and  _451
REMARK  186  A    between atoms: _451  and  _452
REMARK  187  A    between atoms: _451  and  _454
REMARK  188  A    between atoms: _454  and  _455
REMARK  189  A    between atoms: _458  and  _460
REMARK  190  A    between atoms: _460  and  _461
REMARK  191  A    between atoms: _463  and  _465
REMARK  192  A    between atoms: _465  and  _466
REMARK  193  A    between atoms: _468  and  _470
REMARK  194  A    between atoms: _470  and  _471
REMARK  195  A    between atoms: _470  and  _473
REMARK  196  A    between atoms: _473  and  _474
REMARK  197  A    between atoms: _480  and  _482
REMARK  198  A    between atoms: _482  and  _483
REMARK  199  A    between atoms: _482  and  _485
REMARK  200  A    between atoms: _485  and  _486
REMARK  201  A    between atoms: _489  and  _491
REMARK  202  A    between atoms: _491  and  _492
REMARK  203  A    between atoms: _491  and  _494
REMARK  204  A    between atoms: _497  and  _499
REMARK  205  A    between atoms: _499  and  _500
REMARK  206  A    between atoms: _499  and  _502
REMARK  207  A    between atoms: _502  and  _503
REMARK  208  A    between atoms: _507  and  _508
REMARK  209  A    between atoms: _513  and  _515
REMARK  210  A    between atoms: _515  and  _516
REMARK  211  A    between atoms: _515  and  _518
REMARK  212  A    between atoms: _518  and  _519
REMARK  213  A    between atoms: _523  and  _524
REMARK  214  A    between atoms: _529  and  _531
REMARK  215  A    between atoms: _531  and  _532
REMARK  216  A    between atoms: _531  and  _534
REMARK  217  A    between atoms: _537  and  _539
REMARK  218  A    between atoms: _539  and  _540
REMARK  219  A    between atoms: _539  and  _542
REMARK  220  A    between atoms: _542  and  _543
REMARK  221  A    between atoms: _548  and  _550
REMARK  222  A    between atoms: _550  and  _551
REMARK  223  A    between atoms: _550  and  _553
REMARK  224  A    between atoms: _556  and  _558
REMARK  225  A    between atoms: _558  and  _559
REMARK  226  A    between atoms: _558  and  _561
REMARK  227  A    between atoms: _561  and  _562
REMARK  228  A    between atoms: _565  and  _567
REMARK  229  A    between atoms: _567  and  _568
REMARK  230  A    between atoms: _570  and  _572
REMARK  231  A    between atoms: _572  and  _573
REMARK  232  A    between atoms: _572  and  _575
REMARK  233  A    between atoms: _575  and  _576
REMARK  234  A    between atoms: _576  and  _577
REMARK  235  A    between atoms: _577  and  _578
REMARK  236  A    between atoms: _587  and  _589
REMARK  237  A    between atoms: _589  and  _590
REMARK  238  A    between atoms: _589  and  _592
REMARK  239  A    between atoms: _592  and  _593
REMARK                            x       y       z     vdW  Elec       q    Type
REMARK                         _______ _______ _______ _____ _____    ______ ____
ROOT
ATOM      1  O   HOH     1      27.674  31.397  14.994  0.00  0.00    +0.000 OA
ENDROOT
TORSDOF 0
REMARK  Name = ../refined-set-2016/2aoc/2aoc_pocket.pdb
REMARK  239 active torsions:
REMARK  status: ('A' for Active; 'I' for Inactive)
REMARK    1  A    between atoms: _1  and  _3
REMARK    2  A    between atoms: _3  and  _4
REMARK    3  A    between atoms: _3  and  _6
REMARK    4  A    between atoms: _6  and  _7
REMARK    5  A    between atoms: _7  and  _8
REMARK    6  A    between atoms: _8  and  _9
REMARK    7  A    between atoms: _18  and  _20
REMARK    8  A    between atoms: _20  and  _21
REMARK    9  A    between atoms: _20  and  _23
REMARK   10  A    between atoms: _23  and  _24
REMARK   11  A    between atoms: _27  and  _29
REMARK   12  A    between atoms: _29  and  _30
REMARK   13  A    between atoms: _29  and  _32
REMARK   14  A    between atoms: _33  and  _34
REMARK   15  A    between atoms: _37  and  _39
REMARK   16  A    between atoms: _39  and  _40
REMARK   17  A    between atoms: _39  and  _42
REMARK   18  A    between atoms: _42  and  _43
REMARK   19  A    between atoms: _46  and  _48
REMARK   20  A    between atoms: _48  and  _49
REMARK   21  A    between atoms: _48  and  _51
REMARK   22  A    between atoms: _51  and  _52
REMARK   23  A    between atoms: _55  and  _57
REMARK   24  A    between atoms: _57  and  _58
REMARK   25  A    between atoms: _57  and  _60
REMARK   26  A    between atoms: _60  and  _61
REMARK   27  A    between atoms: _64  and  _66
REMARK   28  A    between atoms: _66  and  _67
REMARK   29  A    between atoms: _66  and  _69
REMARK   30  A    between atoms: _69  and  _70
REMARK   31  A    between atoms: _73  and  _75
REMARK   32  A    between atoms: _75  and  _76
REMARK   33  A    between atoms: _78  and  _80
REMARK   34  A    between atoms: _80  and  _81
REMARK   35  A    between atoms: _84  and  _86
REMARK   36  A    between atoms: _86  and  _87
REMARK   37  A    between atoms: _86  and  _89
REMARK   38  A    between atoms: _89  and  _90
REMARK   39  A    between atoms: _93  and  _95
REMARK   40  A    between atoms: _95  and  _96
REMARK   41  A    between atoms: _95  and  _98
REMARK   42  A    between atoms: _98  and  _99
REMARK   43  A    between atoms: _102  and  _104
REMARK   44  A    between atoms: _104  and  _105
REMARK   45  A    between atoms: _104  and  _107
REMARK   46  A    between atoms: _107  and  _108
REMARK   47  A    between atoms: _111  and  _113
REMARK   48  A    between atoms: _113  and  _114
REMARK   49  A    between atoms: _113  and  _116
REMARK   50  A    between atoms: _119  and  _121
REMARK   51  A    between atoms: _121  and  _122
REMARK   52  A    between atoms: _121  and  _124
REMARK   53  A    between atoms: _124  and  _125
REMARK   54  A    between atoms: _125  and  _126
REMARK   55  A    between atoms: _126  and  _127
REMARK   56  A    between atoms: _127  and  _128
REMARK   57  A    between atoms: _132  and  _134
REMARK   58  A    between atoms: _134  and  _135
REMARK   59  A    between atoms: _134  and  _137
REMARK   60  A    between atoms: _137  and  _138
REMARK   61  A    between atoms: _138  and  _139
REMARK   62  A    between atoms: _141  and  _143
REMARK   63  A    between atoms: _143  and  _144
REMARK   64  A    between atoms: _143  and  _146
REMARK   65  A    between atoms: _146  and  _147
REMARK   66  A    between atoms: _150  and  _152
REMARK   67  A    between atoms: _152  and  _153
REMARK   68  A    between atoms: _155  and  _157
REMARK   69  A    between atoms: _157  and  _158
REMARK   70  A    between atoms: _160  and  _162
REMARK   71  A    between atoms: _162  and  _163
REMARK   72  A    between atoms: _162  and  _165
REMARK   73  A    between atoms: _165  and  _166
REMARK   74  A    between atoms: _169  and  _171
REMARK   75  A    between atoms: _171  and  _172
REMARK   76  A    between atoms: _174  and  _176
REMARK   77  A    between atoms: _176  and  _177
REMARK   78  A    between atoms: _179  and  _181
REMARK   79  A    between atoms: _181  and  _182
REMARK   80  A    between atoms: _181  and  _184
REMARK   81  A    between atoms: _184  and  _185
REMARK   82  A    between atoms: _191  and  _193
REMARK   83  A    between atoms: _193  and  _194
REMARK   84  A    between atoms: _193  and  _196
REMARK   85  A    between atoms: _196  and  _197
REMARK   86  A    between atoms: _200  and  _202
REMARK   87  A    between atoms: _202  and  _203
REMARK   88  A    between atoms: _202  and  _205
REMARK   89  A    between atoms: _208  and  _210
REMARK   90  A    between atoms: _210  and  _211
REMARK   91  A    between atoms: _210  and  _213
REMARK   92  A    between atoms: _213  and  _214
REMARK   93  A    between atoms: _218  and  _219
REMARK   94  A    between atoms: _224  and  _226
REMARK   95  A    between atoms: _226  and  _227
REMARK   96  A    between atoms: _226  and  _229
REMARK   97  A    between atoms: _229  and  _230
REMARK   98  A    between atoms: _234  and  _235
REMARK   99  A    between atoms: _240  and  _242
REMARK  100  A    between atoms: _242  and  _243
REMARK  101  A    between atoms: _242  and  _245
REMARK  102  A    between atoms: _248  and  _250
REMARK  103  A    between atoms: _250  and  _251
REMARK  104  A    between atoms: _250  and  _253
REMARK  105  A    between atoms: _253  and  _254
REMARK  106  A    between atoms: _259  and  _261
REMARK  107  A    between atoms: _261  and  _262
REMARK  108  A    between atoms: _261  and  _264
REMARK  109  A    between atoms: _267  and  _269
REMARK  110  A    between atoms: _269  and  _270
REMARK  111  A    between atoms: _269  and  _272
REMARK  112  A    between atoms: _272  and  _273
REMARK  113  A    between atoms: _276  and  _278
REMARK  114  A    between atoms: _278  and  _279
REMARK  115  A    between atoms: _281  and  _283
REMARK  116  A    between atoms: _283  and  _284
REMARK  117  A    between atoms: _283  and  _286
REMARK  118  A    between atoms: _287  and  _288
REMARK  119  A    between atoms: _288  and  _289
REMARK  120  A    between atoms: _298  and  _300
REMARK  121  A    between atoms: _300  and  _301
REMARK  122  A    between atoms: _300  and  _303
REMARK  123  A    between atoms: _303  and  _304
REMARK  124  A    between atoms: _309  and  _311
REMARK  125  A    between atoms: _311  and  _312
REMARK  126  A    between atoms: _311  and  _314
REMARK  127  A    between atoms: _314  and  _315
REMARK  128  A    between atoms: _315  and  _316
REMARK  129  A    between atoms: _316  and  _317
REMARK  130  A    between atoms: _326  and  _328
REMARK  131  A    between atoms: _328  and  _329
REMARK  132  A    between atoms: _328  and  _331
REMARK  133  A    between atoms: _331  and  _332
REMARK  134  A    between atoms: _335  and  _337
REMARK  135  A    between atoms: _337  and  _338
REMARK  136  A    between atoms: _337  and  _340
REMARK  137  A    between atoms: _340  and  _341
REMARK  138  A    between atoms: _344  and  _346
REMARK  139  A    between atoms: _346  and  _347
REMARK  140  A    between atoms: _346  and  _349
REMARK  141  A    between atoms: _349  and  _350
REMARK  142  A    between atoms: _353  and  _355
REMARK  143  A    between atoms: _355  and  _356
REMARK  144  A    between atoms: _355  and  _358
REMARK  145  A    between atoms: _358  and  _359
REMARK  146  A    between atoms: _362  and  _364
REMARK  147  A    between atoms: _364  and  _365
REMARK  148  A    between atoms: _367  and  _369
REMARK  149  A    between atoms: _369  and  _370
REMARK  150  A    between atoms: _373  and  _375
REMARK  151  A    between atoms: _375  and  _376
REMARK  152  A    between atoms: _375  and  _378
REMARK  153  A    between atoms: _378  and  _379
REMARK  154  A    between atoms: _382  and  _384
REMARK  155  A    between atoms: _384  and  _385
REMARK  156  A    between atoms: _384  and  _387
REMARK  157  A    between atoms: _387  and  _388
REMARK  158  A    between atoms: _391  and  _393
REMARK  159  A    between atoms: _393  and  _394
REMARK  160  A    between atoms: _393  and  _396
REMARK  161  A    between atoms: _396  and  _397
REMARK  162  A    between atoms: _400  and  _402
REMARK  163  A    between atoms: _402  and  _403
REMARK  164  A    between atoms: _402  and  _405
REMARK  165  A    between atoms: _408  and  _410
REMARK  166  A    between atoms: _410  and  _411
REMARK  167  A    between atoms: _410  and  _413
REMARK  168  A    between atoms: _413  and  _414
REMARK  169  A    between atoms: _414  and  _415
REMARK  170  A    between atoms: _415  and  _416
REMARK  171  A    between atoms: _416  and  _417
REMARK  172  A    between atoms: _421  and  _423
REMARK  173  A    between atoms: _423  and  _424
REMARK  174  A    between atoms: _423  and  _426
REMARK  175  A    between atoms: _426  and  _427
REMARK  176  A    between atoms: _427  and  _428
REMARK  177  A    between atoms: _430  and  _432
REMARK  178  A    between atoms: _432  and  _433
REMARK  179  A    between atoms: _432  and  _435
REMARK  180  A    between atoms: _435  and  _436
REMARK  181  A    between atoms: _439  and  _441
REMARK  182  A    between atoms: _441  and  _442
REMARK  183  A    between atoms: _444  and  _446
REMARK  184  A    between atoms: _446  and  _447
REMARK  185  A    between atoms: _449  and  _451
REMARK  186  A    between atoms: _451  and  _452
REMARK  187  A    between atoms: _451  and  _454
REMARK  188  A    between atoms: _454  and  _455
REMARK  189  A    between atoms: _458  and  _460
REMARK  190  A    between atoms: _460  and  _461
REMARK  191  A    between atoms: _463  and  _465
REMARK  192  A    between atoms: _465  and  _466
REMARK  193  A    between atoms: _468  and  _470
REMARK  194  A    between atoms: _470  and  _471
REMARK  195  A    between atoms: _470  and  _473
REMARK  196  A    between atoms: _473  and  _474
REMARK  197  A    between atoms: _480  and  _482
REMARK  198  A    between atoms: _482  and  _483
REMARK  199  A    between atoms: _482  and  _485
REMARK  200  A    between atoms: _485  and  _486
REMARK  201  A    between atoms: _489  and  _491
REMARK  202  A    between atoms: _491  and  _492
REMARK  203  A    between atoms: _491  and  _494
REMARK  204  A    between atoms: _497  and  _499
REMARK  205  A    between atoms: _499  and  _500
REMARK  206  A    between atoms: _499  and  _502
REMARK  207  A    between atoms: _502  and  _503
REMARK  208  A    between atoms: _507  and  _508
REMARK  209  A    between atoms: _513  and  _515
REMARK  210  A    between atoms: _515  and  _516
REMARK  211  A    between atoms: _515  and  _518
REMARK  212  A    between atoms: _518  and  _519
REMARK  213  A    between atoms: _523  and  _524
REMARK  214  A    between atoms: _529  and  _531
REMARK  215  A    between atoms: _531  and  _532
REMARK  216  A    between atoms: _531  and  _534
REMARK  217  A    between atoms: _537  and  _539
REMARK  218  A    between atoms: _539  and  _540
REMARK  219  A    between atoms: _539  and  _542
REMARK  220  A    between atoms: _542  and  _543
REMARK  221  A    between atoms: _548  and  _550
REMARK  222  A    between atoms: _550  and  _551
REMARK  223  A    between atoms: _550  and  _553
REMARK  224  A    between atoms: _556  and  _558
REMARK  225  A    between atoms: _558  and  _559
REMARK  226  A    between atoms: _558  and  _561
REMARK  227  A    between atoms: _561  and  _562
REMARK  228  A    between atoms: _565  and  _567
REMARK  229  A    between atoms: _567  and  _568
REMARK  230  A    between atoms: _570  and  _572
REMARK  231  A    between atoms: _572  and  _573
REMARK  232  A    between atoms: _572  and  _575
REMARK  233  A    between atoms: _575  and  _576
REMARK  234  A    between atoms: _576  and  _577
REMARK  235  A    between atoms: _577  and  _578
REMARK  236  A    between atoms: _587  and  _589
REMARK  237  A    between atoms: _589  and  _590
REMARK  238  A    between atoms: _589  and  _592
REMARK  239  A    between atoms: _592  and  _593
REMARK                            x       y       z     vdW  Elec       q    Type
REMARK                         _______ _______ _______ _____ _____    ______ ____
ROOT
ATOM      1  O   HOH     1       1.752  22.378  13.045  0.00  0.00    +0.000 OA
ENDROOT
TORSDOF 0
REMARK  Name = ../refined-set-2016/2aoc/2aoc_pocket.pdb
REMARK  239 active torsions:
REMARK  status: ('A' for Active; 'I' for Inactive)
REMARK    1  A    between atoms: _1  and  _3
REMARK    2  A    between atoms: _3  and  _4
REMARK    3  A    between atoms: _3  and  _6
REMARK    4  A    between atoms: _6  and  _7
REMARK    5  A    between atoms: _7  and  _8
REMARK    6  A    between atoms: _8  and  _9
REMARK    7  A    between atoms: _18  and  _20
REMARK    8  A    between atoms: _20  and  _21
REMARK    9  A    between atoms: _20  and  _23
REMARK   10  A    between atoms: _23  and  _24
REMARK   11  A    between atoms: _27  and  _29
REMARK   12  A    between atoms: _29  and  _30
REMARK   13  A    between atoms: _29  and  _32
REMARK   14  A    between atoms: _33  and  _34
REMARK   15  A    between atoms: _37  and  _39
REMARK   16  A    between atoms: _39  and  _40
REMARK   17  A    between atoms: _39  and  _42
REMARK   18  A    between atoms: _42  and  _43
REMARK   19  A    between atoms: _46  and  _48
REMARK   20  A    between atoms: _48  and  _49
REMARK   21  A    between atoms: _48  and  _51
REMARK   22  A    between atoms: _51  and  _52
REMARK   23  A    between atoms: _55  and  _57
REMARK   24  A    between atoms: _57  and  _58
REMARK   25  A    between atoms: _57  and  _60
REMARK   26  A    between atoms: _60  and  _61
REMARK   27  A    between atoms: _64  and  _66
REMARK   28  A    between atoms: _66  and  _67
REMARK   29  A    between atoms: _66  and  _69
REMARK   30  A    between atoms: _69  and  _70
REMARK   31  A    between atoms: _73  and  _75
REMARK   32  A    between atoms: _75  and  _76
REMARK   33  A    between atoms: _78  and  _80
REMARK   34  A    between atoms: _80  and  _81
REMARK   35  A    between atoms: _84  and  _86
REMARK   36  A    between atoms: _86  and  _87
REMARK   37  A    between atoms: _86  and  _89
REMARK   38  A    between atoms: _89  and  _90
REMARK   39  A    between atoms: _93  and  _95
REMARK   40  A    between atoms: _95  and  _96
REMARK   41  A    between atoms: _95  and  _98
REMARK   42  A    between atoms: _98  and  _99
REMARK   43  A    between atoms: _102  and  _104
REMARK   44  A    between atoms: _104  and  _105
REMARK   45  A    between atoms: _104  and  _107
REMARK   46  A    between atoms: _107  and  _108
REMARK   47  A    between atoms: _111  and  _113
REMARK   48  A    between atoms: _113  and  _114
REMARK   49  A    between atoms: _113  and  _116
REMARK   50  A    between atoms: _119  and  _121
REMARK   51  A    between atoms: _121  and  _122
REMARK   52  A    between atoms: _121  and  _124
REMARK   53  A    between atoms: _124  and  _125
REMARK   54  A    between atoms: _125  and  _126
REMARK   55  A    between atoms: _126  and  _127
REMARK   56  A    between atoms: _127  and  _128
REMARK   57  A    between atoms: _132  and  _134
REMARK   58  A    between atoms: _134  and  _135
REMARK   59  A    between atoms: _134  and  _137
REMARK   60  A    between atoms: _137  and  _138
REMARK   61  A    between atoms: _138  and  _139
REMARK   62  A    between atoms: _141  and  _143
REMARK   63  A    between atoms: _143  and  _144
REMARK   64  A    between atoms: _143  and  _146
REMARK   65  A    between atoms: _146  and  _147
REMARK   66  A    between atoms: _150  and  _152
REMARK   67  A    between atoms: _152  and  _153
REMARK   68  A    between atoms: _155  and  _157
REMARK   69  A    between atoms: _157  and  _158
REMARK   70  A    between atoms: _160  and  _162
REMARK   71  A    between atoms: _162  and  _163
REMARK   72  A    between atoms: _162  and  _165
REMARK   73  A    between atoms: _165  and  _166
REMARK   74  A    between atoms: _169  and  _171
REMARK   75  A    between atoms: _171  and  _172
REMARK   76  A    between atoms: _174  and  _176
REMARK   77  A    between atoms: _176  and  _177
REMARK   78  A    between atoms: _179  and  _181
REMARK   79  A    between atoms: _181  and  _182
REMARK   80  A    between atoms: _181  and  _184
REMARK   81  A    between atoms: _184  and  _185
REMARK   82  A    between atoms: _191  and  _193
REMARK   83  A    between atoms: _193  and  _194
REMARK   84  A    between atoms: _193  and  _196
REMARK   85  A    between atoms: _196  and  _197
REMARK   86  A    between atoms: _200  and  _202
REMARK   87  A    between atoms: _202  and  _203
REMARK   88  A    between atoms: _202  and  _205
REMARK   89  A    between atoms: _208  and  _210
REMARK   90  A    between atoms: _210  and  _211
REMARK   91  A    between atoms: _210  and  _213
REMARK   92  A    between atoms: _213  and  _214
REMARK   93  A    between atoms: _218  and  _219
REMARK   94  A    between atoms: _224  and  _226
REMARK   95  A    between atoms: _226  and  _227
REMARK   96  A    between atoms: _226  and  _229
REMARK   97  A    between atoms: _229  and  _230
REMARK   98  A    between atoms: _234  and  _235
REMARK   99  A    between atoms: _240  and  _242
REMARK  100  A    between atoms: _242  and  _243
REMARK  101  A    between atoms: _242  and  _245
REMARK  102  A    between atoms: _248  and  _250
REMARK  103  A    between atoms: _250  and  _251
REMARK  104  A    between atoms: _250  and  _253
REMARK  105  A    between atoms: _253  and  _254
REMARK  106  A    between atoms: _259  and  _261
REMARK  107  A    between atoms: _261  and  _262
REMARK  108  A    between atoms: _261  and  _264
REMARK  109  A    between atoms: _267  and  _269
REMARK  110  A    between atoms: _269  and  _270
REMARK  111  A    between atoms: _269  and  _272
REMARK  112  A    between atoms: _272  and  _273
REMARK  113  A    between atoms: _276  and  _278
REMARK  114  A    between atoms: _278  and  _279
REMARK  115  A    between atoms: _281  and  _283
REMARK  116  A    between atoms: _283  and  _284
REMARK  117  A    between atoms: _283  and  _286
REMARK  118  A    between atoms: _287  and  _288
REMARK  119  A    between atoms: _288  and  _289
REMARK  120  A    between atoms: _298  and  _300
REMARK  121  A    between atoms: _300  and  _301
REMARK  122  A    between atoms: _300  and  _303
REMARK  123  A    between atoms: _303  and  _304
REMARK  124  A    between atoms: _309  and  _311
REMARK  125  A    between atoms: _311  and  _312
REMARK  126  A    between atoms: _311  and  _314
REMARK  127  A    between atoms: _314  and  _315
REMARK  128  A    between atoms: _315  and  _316
REMARK  129  A    between atoms: _316  and  _317
REMARK  130  A    between atoms: _326  and  _328
REMARK  131  A    between atoms: _328  and  _329
REMARK  132  A    between atoms: _328  and  _331
REMARK  133  A    between atoms: _331  and  _332
REMARK  134  A    between atoms: _335  and  _337
REMARK  135  A    between atoms: _337  and  _338
REMARK  136  A    between atoms: _337  and  _340
REMARK  137  A    between atoms: _340  and  _341
REMARK  138  A    between atoms: _344  and  _346
REMARK  139  A    between atoms: _346  and  _347
REMARK  140  A    between atoms: _346  and  _349
REMARK  141  A    between atoms: _349  and  _350
REMARK  142  A    between atoms: _353  and  _355
REMARK  143  A    between atoms: _355  and  _356
REMARK  144  A    between atoms: _355  and  _358
REMARK  145  A    between atoms: _358  and  _359
REMARK  146  A    between atoms: _362  and  _364
REMARK  147  A    between atoms: _364  and  _365
REMARK  148  A    between atoms: _367  and  _369
REMARK  149  A    between atoms: _369  and  _370
REMARK  150  A    between atoms: _373  and  _375
REMARK  151  A    between atoms: _375  and  _376
REMARK  152  A    between atoms: _375  and  _378
REMARK  153  A    between atoms: _378  and  _379
REMARK  154  A    between atoms: _382  and  _384
REMARK  155  A    between atoms: _384  and  _385
REMARK  156  A    between atoms: _384  and  _387
REMARK  157  A    between atoms: _387  and  _388
REMARK  158  A    between atoms: _391  and  _393
REMARK  159  A    between atoms: _393  and  _394
REMARK  160  A    between atoms: _393  and  _396
REMARK  161  A    between atoms: _396  and  _397
REMARK  162  A    between atoms: _400  and  _402
REMARK  163  A    between atoms: _402  and  _403
REMARK  164  A    between atoms: _402  and  _405
REMARK  165  A    between atoms: _408  and  _410
REMARK  166  A    between atoms: _410  and  _411
REMARK  167  A    between atoms: _410  and  _413
REMARK  168  A    between atoms: _413  and  _414
REMARK  169  A    between atoms: _414  and  _415
REMARK  170  A    between atoms: _415  and  _416
REMARK  171  A    between atoms: _416  and  _417
REMARK  172  A    between atoms: _421  and  _423
REMARK  173  A    between atoms: _423  and  _424
REMARK  174  A    between atoms: _423  and  _426
REMARK  175  A    between atoms: _426  and  _427
REMARK  176  A    between atoms: _427  and  _428
REMARK  177  A    between atoms: _430  and  _432
REMARK  178  A    between atoms: _432  and  _433
REMARK  179  A    between atoms: _432  and  _435
REMARK  180  A    between atoms: _435  and  _436
REMARK  181  A    between atoms: _439  and  _441
REMARK  182  A    between atoms: _441  and  _442
REMARK  183  A    between atoms: _444  and  _446
REMARK  184  A    between atoms: _446  and  _447
REMARK  185  A    between atoms: _449  and  _451
REMARK  186  A    between atoms: _451  and  _452
REMARK  187  A    between atoms: _451  and  _454
REMARK  188  A    between atoms: _454  and  _455
REMARK  189  A    between atoms: _458  and  _460
REMARK  190  A    between atoms: _460  and  _461
REMARK  191  A    between atoms: _463  and  _465
REMARK  192  A    between atoms: _465  and  _466
REMARK  193  A    between atoms: _468  and  _470
REMARK  194  A    between atoms: _470  and  _471
REMARK  195  A    between atoms: _470  and  _473
REMARK  196  A    between atoms: _473  and  _474
REMARK  197  A    between atoms: _480  and  _482
REMARK  198  A    between atoms: _482  and  _483
REMARK  199  A    between atoms: _482  and  _485
REMARK  200  A    between atoms: _485  and  _486
REMARK  201  A    between atoms: _489  and  _491
REMARK  202  A    between atoms: _491  and  _492
REMARK  203  A    between atoms: _491  and  _494
REMARK  204  A    between atoms: _497  and  _499
REMARK  205  A    between atoms: _499  and  _500
REMARK  206  A    between atoms: _499  and  _502
REMARK  207  A    between atoms: _502  and  _503
REMARK  208  A    between atoms: _507  and  _508
REMARK  209  A    between atoms: _513  and  _515
REMARK  210  A    between atoms: _515  and  _516
REMARK  211  A    between atoms: _515  and  _518
REMARK  212  A    between atoms: _518  and  _519
REMARK  213  A    between atoms: _523  and  _524
REMARK  214  A    between atoms: _529  and  _531
REMARK  215  A    between atoms: _531  and  _532
REMARK  216  A    between atoms: _531  and  _534
REMARK  217  A    between atoms: _537  and  _539
REMARK  218  A    between atoms: _539  and  _540
REMARK  219  A    between atoms: _539  and  _542
REMARK  220  A    between atoms: _542  and  _543
REMARK  221  A    between atoms: _548  and  _550
REMARK  222  A    between atoms: _550  and  _551
REMARK  223  A    between atoms: _550  and  _553
REMARK  224  A    between atoms: _556  and  _558
REMARK  225  A    between atoms: _558  and  _559
REMARK  226  A    between atoms: _558  and  _561
REMARK  227  A    between atoms: _561  and  _562
REMARK  228  A    between atoms: _565  and  _567
REMARK  229  A    between atoms: _567  and  _568
REMARK  230  A    between atoms: _570  and  _572
REMARK  231  A    between atoms: _572  and  _573
REMARK  232  A    between atoms: _572  and  _575
REMARK  233  A    between atoms: _575  and  _576
REMARK  234  A    between atoms: _576  and  _577
REMARK  235  A    between atoms: _577  and  _578
REMARK  236  A    between atoms: _587  and  _589
REMARK  237  A    between atoms: _589  and  _590
REMARK  238  A    between atoms: _589  and  _592
REMARK  239  A    between atoms: _592  and  _593
REMARK                            x       y       z     vdW  Elec       q    Type
REMARK                         _______ _______ _______ _____ _____    ______ ____
ROOT
ATOM      1  O   HOH     1       5.640  17.059  11.909  0.00  0.00    +0.000 OA
ENDROOT
TORSDOF 0
REMARK  Name = ../refined-set-2016/2aoc/2aoc_pocket.pdb
REMARK  239 active torsions:
REMARK  status: ('A' for Active; 'I' for Inactive)
REMARK    1  A    between atoms: _1  and  _3
REMARK    2  A    between atoms: _3  and  _4
REMARK    3  A    between atoms: _3  and  _6
REMARK    4  A    between atoms: _6  and  _7
REMARK    5  A    between atoms: _7  and  _8
REMARK    6  A    between atoms: _8  and  _9
REMARK    7  A    between atoms: _18  and  _20
REMARK    8  A    between atoms: _20  and  _21
REMARK    9  A    between atoms: _20  and  _23
REMARK   10  A    between atoms: _23  and  _24
REMARK   11  A    between atoms: _27  and  _29
REMARK   12  A    between atoms: _29  and  _30
REMARK   13  A    between atoms: _29  and  _32
REMARK   14  A    between atoms: _33  and  _34
REMARK   15  A    between atoms: _37  and  _39
REMARK   16  A    between atoms: _39  and  _40
REMARK   17  A    between atoms: _39  and  _42
REMARK   18  A    between atoms: _42  and  _43
REMARK   19  A    between atoms: _46  and  _48
REMARK   20  A    between atoms: _48  and  _49
REMARK   21  A    between atoms: _48  and  _51
REMARK   22  A    between atoms: _51  and  _52
REMARK   23  A    between atoms: _55  and  _57
REMARK   24  A    between atoms: _57  and  _58
REMARK   25  A    between atoms: _57  and  _60
REMARK   26  A    between atoms: _60  and  _61
REMARK   27  A    between atoms: _64  and  _66
REMARK   28  A    between atoms: _66  and  _67
REMARK   29  A    between atoms: _66  and  _69
REMARK   30  A    between atoms: _69  and  _70
REMARK   31  A    between atoms: _73  and  _75
REMARK   32  A    between atoms: _75  and  _76
REMARK   33  A    between atoms: _78  and  _80
REMARK   34  A    between atoms: _80  and  _81
REMARK   35  A    between atoms: _84  and  _86
REMARK   36  A    between atoms: _86  and  _87
REMARK   37  A    between atoms: _86  and  _89
REMARK   38  A    between atoms: _89  and  _90
REMARK   39  A    between atoms: _93  and  _95
REMARK   40  A    between atoms: _95  and  _96
REMARK   41  A    between atoms: _95  and  _98
REMARK   42  A    between atoms: _98  and  _99
REMARK   43  A    between atoms: _102  and  _104
REMARK   44  A    between atoms: _104  and  _105
REMARK   45  A    between atoms: _104  and  _107
REMARK   46  A    between atoms: _107  and  _108
REMARK   47  A    between atoms: _111  and  _113
REMARK   48  A    between atoms: _113  and  _114
REMARK   49  A    between atoms: _113  and  _116
REMARK   50  A    between atoms: _119  and  _121
REMARK   51  A    between atoms: _121  and  _122
REMARK   52  A    between atoms: _121  and  _124
REMARK   53  A    between atoms: _124  and  _125
REMARK   54  A    between atoms: _125  and  _126
REMARK   55  A    between atoms: _126  and  _127
REMARK   56  A    between atoms: _127  and  _128
REMARK   57  A    between atoms: _132  and  _134
REMARK   58  A    between atoms: _134  and  _135
REMARK   59  A    between atoms: _134  and  _137
REMARK   60  A    between atoms: _137  and  _138
REMARK   61  A    between atoms: _138  and  _139
REMARK   62  A    between atoms: _141  and  _143
REMARK   63  A    between atoms: _143  and  _144
REMARK   64  A    between atoms: _143  and  _146
REMARK   65  A    between atoms: _146  and  _147
REMARK   66  A    between atoms: _150  and  _152
REMARK   67  A    between atoms: _152  and  _153
REMARK   68  A    between atoms: _155  and  _157
REMARK   69  A    between atoms: _157  and  _158
REMARK   70  A    between atoms: _160  and  _162
REMARK   71  A    between atoms: _162  and  _163
REMARK   72  A    between atoms: _162  and  _165
REMARK   73  A    between atoms: _165  and  _166
REMARK   74  A    between atoms: _169  and  _171
REMARK   75  A    between atoms: _171  and  _172
REMARK   76  A    between atoms: _174  and  _176
REMARK   77  A    between atoms: _176  and  _177
REMARK   78  A    between atoms: _179  and  _181
REMARK   79  A    between atoms: _181  and  _182
REMARK   80  A    between atoms: _181  and  _184
REMARK   81  A    between atoms: _184  and  _185
REMARK   82  A    between atoms: _191  and  _193
REMARK   83  A    between atoms: _193  and  _194
REMARK   84  A    between atoms: _193  and  _196
REMARK   85  A    between atoms: _196  and  _197
REMARK   86  A    between atoms: _200  and  _202
REMARK   87  A    between atoms: _202  and  _203
REMARK   88  A    between atoms: _202  and  _205
REMARK   89  A    between atoms: _208  and  _210
REMARK   90  A    between atoms: _210  and  _211
REMARK   91  A    between atoms: _210  and  _213
REMARK   92  A    between atoms: _213  and  _214
REMARK   93  A    between atoms: _218  and  _219
REMARK   94  A    between atoms: _224  and  _226
REMARK   95  A    between atoms: _226  and  _227
REMARK   96  A    between atoms: _226  and  _229
REMARK   97  A    between atoms: _229  and  _230
REMARK   98  A    between atoms: _234  and  _235
REMARK   99  A    between atoms: _240  and  _242
REMARK  100  A    between atoms: _242  and  _243
REMARK  101  A    between atoms: _242  and  _245
REMARK  102  A    between atoms: _248  and  _250
REMARK  103  A    between atoms: _250  and  _251
REMARK  104  A    between atoms: _250  and  _253
REMARK  105  A    between atoms: _253  and  _254
REMARK  106  A    between atoms: _259  and  _261
REMARK  107  A    between atoms: _261  and  _262
REMARK  108  A    between atoms: _261  and  _264
REMARK  109  A    between atoms: _267  and  _269
REMARK  110  A    between atoms: _269  and  _270
REMARK  111  A    between atoms: _269  and  _272
REMARK  112  A    between atoms: _272  and  _273
REMARK  113  A    between atoms: _276  and  _278
REMARK  114  A    between atoms: _278  and  _279
REMARK  115  A    between atoms: _281  and  _283
REMARK  116  A    between atoms: _283  and  _284
REMARK  117  A    between atoms: _283  and  _286
REMARK  118  A    between atoms: _287  and  _288
REMARK  119  A    between atoms: _288  and  _289
REMARK  120  A    between atoms: _298  and  _300
REMARK  121  A    between atoms: _300  and  _301
REMARK  122  A    between atoms: _300  and  _303
REMARK  123  A    between atoms: _303  and  _304
REMARK  124  A    between atoms: _309  and  _311
REMARK  125  A    between atoms: _311  and  _312
REMARK  126  A    between atoms: _311  and  _314
REMARK  127  A    between atoms: _314  and  _315
REMARK  128  A    between atoms: _315  and  _316
REMARK  129  A    between atoms: _316  and  _317
REMARK  130  A    between atoms: _326  and  _328
REMARK  131  A    between atoms: _328  and  _329
REMARK  132  A    between atoms: _328  and  _331
REMARK  133  A    between atoms: _331  and  _332
REMARK  134  A    between atoms: _335  and  _337
REMARK  135  A    between atoms: _337  and  _338
REMARK  136  A    between atoms: _337  and  _340
REMARK  137  A    between atoms: _340  and  _341
REMARK  138  A    between atoms: _344  and  _346
REMARK  139  A    between atoms: _346  and  _347
REMARK  140  A    between atoms: _346  and  _349
REMARK  141  A    between atoms: _349  and  _350
REMARK  142  A    between atoms: _353  and  _355
REMARK  143  A    between atoms: _355  and  _356
REMARK  144  A    between atoms: _355  and  _358
REMARK  145  A    between atoms: _358  and  _359
REMARK  146  A    between atoms: _362  and  _364
REMARK  147  A    between atoms: _364  and  _365
REMARK  148  A    between atoms: _367  and  _369
REMARK  149  A    between atoms: _369  and  _370
REMARK  150  A    between atoms: _373  and  _375
REMARK  151  A    between atoms: _375  and  _376
REMARK  152  A    between atoms: _375  and  _378
REMARK  153  A    between atoms: _378  and  _379
REMARK  154  A    between atoms: _382  and  _384
REMARK  155  A    between atoms: _384  and  _385
REMARK  156  A    between atoms: _384  and  _387
REMARK  157  A    between atoms: _387  and  _388
REMARK  158  A    between atoms: _391  and  _393
REMARK  159  A    between atoms: _393  and  _394
REMARK  160  A    between atoms: _393  and  _396
REMARK  161  A    between atoms: _396  and  _397
REMARK  162  A    between atoms: _400  and  _402
REMARK  163  A    between atoms: _402  and  _403
REMARK  164  A    between atoms: _402  and  _405
REMARK  165  A    between atoms: _408  and  _410
REMARK  166  A    between atoms: _410  and  _411
REMARK  167  A    between atoms: _410  and  _413
REMARK  168  A    between atoms: _413  and  _414
REMARK  169  A    between atoms: _414  and  _415
REMARK  170  A    between atoms: _415  and  _416
REMARK  171  A    between atoms: _416  and  _417
REMARK  172  A    between atoms: _421  and  _423
REMARK  173  A    between atoms: _423  and  _424
REMARK  174  A    between atoms: _423  and  _426
REMARK  175  A    between atoms: _426  and  _427
REMARK  176  A    between atoms: _427  and  _428
REMARK  177  A    between atoms: _430  and  _432
REMARK  178  A    between atoms: _432  and  _433
REMARK  179  A    between atoms: _432  and  _435
REMARK  180  A    between atoms: _435  and  _436
REMARK  181  A    between atoms: _439  and  _441
REMARK  182  A    between atoms: _441  and  _442
REMARK  183  A    between atoms: _444  and  _446
REMARK  184  A    between atoms: _446  and  _447
REMARK  185  A    between atoms: _449  and  _451
REMARK  186  A    between atoms: _451  and  _452
REMARK  187  A    between atoms: _451  and  _454
REMARK  188  A    between atoms: _454  and  _455
REMARK  189  A    between atoms: _458  and  _460
REMARK  190  A    between atoms: _460  and  _461
REMARK  191  A    between atoms: _463  and  _465
REMARK  192  A    between atoms: _465  and  _466
REMARK  193  A    between atoms: _468  and  _470
REMARK  194  A    between atoms: _470  and  _471
REMARK  195  A    between atoms: _470  and  _473
REMARK  196  A    between atoms: _473  and  _474
REMARK  197  A    between atoms: _480  and  _482
REMARK  198  A    between atoms: _482  and  _483
REMARK  199  A    between atoms: _482  and  _485
REMARK  200  A    between atoms: _485  and  _486
REMARK  201  A    between atoms: _489  and  _491
REMARK  202  A    between atoms: _491  and  _492
REMARK  203  A    between atoms: _491  and  _494
REMARK  204  A    between atoms: _497  and  _499
REMARK  205  A    between atoms: _499  and  _500
REMARK  206  A    between atoms: _499  and  _502
REMARK  207  A    between atoms: _502  and  _503
REMARK  208  A    between atoms: _507  and  _508
REMARK  209  A    between atoms: _513  and  _515
REMARK  210  A    between atoms: _515  and  _516
REMARK  211  A    between atoms: _515  and  _518
REMARK  212  A    between atoms: _518  and  _519
REMARK  213  A    between atoms: _523  and  _524
REMARK  214  A    between atoms: _529  and  _531
REMARK  215  A    between atoms: _531  and  _532
REMARK  216  A    between atoms: _531  and  _534
REMARK  217  A    between atoms: _537  and  _539
REMARK  218  A    between atoms: _539  and  _540
REMARK  219  A    between atoms: _539  and  _542
REMARK  220  A    between atoms: _542  and  _543
REMARK  221  A    between atoms: _548  and  _550
REMARK  222  A    between atoms: _550  and  _551
REMARK  223  A    between atoms: _550  and  _553
REMARK  224  A    between atoms: _556  and  _558
REMARK  225  A    between atoms: _558  and  _559
REMARK  226  A    between atoms: _558  and  _561
REMARK  227  A    between atoms: _561  and  _562
REMARK  228  A    between atoms: _565  and  _567
REMARK  229  A    between atoms: _567  and  _568
REMARK  230  A    between atoms: _570  and  _572
REMARK  231  A    between atoms: _572  and  _573
REMARK  232  A    between atoms: _572  and  _575
REMARK  233  A    between atoms: _575  and  _576
REMARK  234  A    between atoms: _576  and  _577
REMARK  235  A    between atoms: _577  and  _578
REMARK  236  A    between atoms: _587  and  _589
REMARK  237  A    between atoms: _589  and  _590
REMARK  238  A    between atoms: _589  and  _592
REMARK  239  A    between atoms: _592  and  _593
REMARK                            x       y       z     vdW  Elec       q    Type
REMARK                         _______ _______ _______ _____ _____    ______ ____
ROOT
ATOM      1  O   HOH     1      12.123  22.558   5.389  0.00  0.00    +0.000 OA
ENDROOT
TORSDOF 0
REMARK  Name = ../refined-set-2016/2aoc/2aoc_pocket.pdb
REMARK  239 active torsions:
REMARK  status: ('A' for Active; 'I' for Inactive)
REMARK    1  A    between atoms: _1  and  _3
REMARK    2  A    between atoms: _3  and  _4
REMARK    3  A    between atoms: _3  and  _6
REMARK    4  A    between atoms: _6  and  _7
REMARK    5  A    between atoms: _7  and  _8
REMARK    6  A    between atoms: _8  and  _9
REMARK    7  A    between atoms: _18  and  _20
REMARK    8  A    between atoms: _20  and  _21
REMARK    9  A    between atoms: _20  and  _23
REMARK   10  A    between atoms: _23  and  _24
REMARK   11  A    between atoms: _27  and  _29
REMARK   12  A    between atoms: _29  and  _30
REMARK   13  A    between atoms: _29  and  _32
REMARK   14  A    between atoms: _33  and  _34
REMARK   15  A    between atoms: _37  and  _39
REMARK   16  A    between atoms: _39  and  _40
REMARK   17  A    between atoms: _39  and  _42
REMARK   18  A    between atoms: _42  and  _43
REMARK   19  A    between atoms: _46  and  _48
REMARK   20  A    between atoms: _48  and  _49
REMARK   21  A    between atoms: _48  and  _51
REMARK   22  A    between atoms: _51  and  _52
REMARK   23  A    between atoms: _55  and  _57
REMARK   24  A    between atoms: _57  and  _58
REMARK   25  A    between atoms: _57  and  _60
REMARK   26  A    between atoms: _60  and  _61
REMARK   27  A    between atoms: _64  and  _66
REMARK   28  A    between atoms: _66  and  _67
REMARK   29  A    between atoms: _66  and  _69
REMARK   30  A    between atoms: _69  and  _70
REMARK   31  A    between atoms: _73  and  _75
REMARK   32  A    between atoms: _75  and  _76
REMARK   33  A    between atoms: _78  and  _80
REMARK   34  A    between atoms: _80  and  _81
REMARK   35  A    between atoms: _84  and  _86
REMARK   36  A    between atoms: _86  and  _87
REMARK   37  A    between atoms: _86  and  _89
REMARK   38  A    between atoms: _89  and  _90
REMARK   39  A    between atoms: _93  and  _95
REMARK   40  A    between atoms: _95  and  _96
REMARK   41  A    between atoms: _95  and  _98
REMARK   42  A    between atoms: _98  and  _99
REMARK   43  A    between atoms: _102  and  _104
REMARK   44  A    between atoms: _104  and  _105
REMARK   45  A    between atoms: _104  and  _107
REMARK   46  A    between atoms: _107  and  _108
REMARK   47  A    between atoms: _111  and  _113
REMARK   48  A    between atoms: _113  and  _114
REMARK   49  A    between atoms: _113  and  _116
REMARK   50  A    between atoms: _119  and  _121
REMARK   51  A    between atoms: _121  and  _122
REMARK   52  A    between atoms: _121  and  _124
REMARK   53  A    between atoms: _124  and  _125
REMARK   54  A    between atoms: _125  and  _126
REMARK   55  A    between atoms: _126  and  _127
REMARK   56  A    between atoms: _127  and  _128
REMARK   57  A    between atoms: _132  and  _134
REMARK   58  A    between atoms: _134  and  _135
REMARK   59  A    between atoms: _134  and  _137
REMARK   60  A    between atoms: _137  and  _138
REMARK   61  A    between atoms: _138  and  _139
REMARK   62  A    between atoms: _141  and  _143
REMARK   63  A    between atoms: _143  and  _144
REMARK   64  A    between atoms: _143  and  _146
REMARK   65  A    between atoms: _146  and  _147
REMARK   66  A    between atoms: _150  and  _152
REMARK   67  A    between atoms: _152  and  _153
REMARK   68  A    between atoms: _155  and  _157
REMARK   69  A    between atoms: _157  and  _158
REMARK   70  A    between atoms: _160  and  _162
REMARK   71  A    between atoms: _162  and  _163
REMARK   72  A    between atoms: _162  and  _165
REMARK   73  A    between atoms: _165  and  _166
REMARK   74  A    between atoms: _169  and  _171
REMARK   75  A    between atoms: _171  and  _172
REMARK   76  A    between atoms: _174  and  _176
REMARK   77  A    between atoms: _176  and  _177
REMARK   78  A    between atoms: _179  and  _181
REMARK   79  A    between atoms: _181  and  _182
REMARK   80  A    between atoms: _181  and  _184
REMARK   81  A    between atoms: _184  and  _185
REMARK   82  A    between atoms: _191  and  _193
REMARK   83  A    between atoms: _193  and  _194
REMARK   84  A    between atoms: _193  and  _196
REMARK   85  A    between atoms: _196  and  _197
REMARK   86  A    between atoms: _200  and  _202
REMARK   87  A    between atoms: _202  and  _203
REMARK   88  A    between atoms: _202  and  _205
REMARK   89  A    between atoms: _208  and  _210
REMARK   90  A    between atoms: _210  and  _211
REMARK   91  A    between atoms: _210  and  _213
REMARK   92  A    between atoms: _213  and  _214
REMARK   93  A    between atoms: _218  and  _219
REMARK   94  A    between atoms: _224  and  _226
REMARK   95  A    between atoms: _226  and  _227
REMARK   96  A    between atoms: _226  and  _229
REMARK   97  A    between atoms: _229  and  _230
REMARK   98  A    between atoms: _234  and  _235
REMARK   99  A    between atoms: _240  and  _242
REMARK  100  A    between atoms: _242  and  _243
REMARK  101  A    between atoms: _242  and  _245
REMARK  102  A    between atoms: _248  and  _250
REMARK  103  A    between atoms: _250  and  _251
REMARK  104  A    between atoms: _250  and  _253
REMARK  105  A    between atoms: _253  and  _254
REMARK  106  A    between atoms: _259  and  _261
REMARK  107  A    between atoms: _261  and  _262
REMARK  108  A    between atoms: _261  and  _264
REMARK  109  A    between atoms: _267  and  _269
REMARK  110  A    between atoms: _269  and  _270
REMARK  111  A    between atoms: _269  and  _272
REMARK  112  A    between atoms: _272  and  _273
REMARK  113  A    between atoms: _276  and  _278
REMARK  114  A    between atoms: _278  and  _279
REMARK  115  A    between atoms: _281  and  _283
REMARK  116  A    between atoms: _283  and  _284
REMARK  117  A    between atoms: _283  and  _286
REMARK  118  A    between atoms: _287  and  _288
REMARK  119  A    between atoms: _288  and  _289
REMARK  120  A    between atoms: _298  and  _300
REMARK  121  A    between atoms: _300  and  _301
REMARK  122  A    between atoms: _300  and  _303
REMARK  123  A    between atoms: _303  and  _304
REMARK  124  A    between atoms: _309  and  _311
REMARK  125  A    between atoms: _311  and  _312
REMARK  126  A    between atoms: _311  and  _314
REMARK  127  A    between atoms: _314  and  _315
REMARK  128  A    between atoms: _315  and  _316
REMARK  129  A    between atoms: _316  and  _317
REMARK  130  A    between atoms: _326  and  _328
REMARK  131  A    between atoms: _328  and  _329
REMARK  132  A    between atoms: _328  and  _331
REMARK  133  A    between atoms: _331  and  _332
REMARK  134  A    between atoms: _335  and  _337
REMARK  135  A    between atoms: _337  and  _338
REMARK  136  A    between atoms: _337  and  _340
REMARK  137  A    between atoms: _340  and  _341
REMARK  138  A    between atoms: _344  and  _346
REMARK  139  A    between atoms: _346  and  _347
REMARK  140  A    between atoms: _346  and  _349
REMARK  141  A    between atoms: _349  and  _350
REMARK  142  A    between atoms: _353  and  _355
REMARK  143  A    between atoms: _355  and  _356
REMARK  144  A    between atoms: _355  and  _358
REMARK  145  A    between atoms: _358  and  _359
REMARK  146  A    between atoms: _362  and  _364
REMARK  147  A    between atoms: _364  and  _365
REMARK  148  A    between atoms: _367  and  _369
REMARK  149  A    between atoms: _369  and  _370
REMARK  150  A    between atoms: _373  and  _375
REMARK  151  A    between atoms: _375  and  _376
REMARK  152  A    between atoms: _375  and  _378
REMARK  153  A    between atoms: _378  and  _379
REMARK  154  A    between atoms: _382  and  _384
REMARK  155  A    between atoms: _384  and  _385
REMARK  156  A    between atoms: _384  and  _387
REMARK  157  A    between atoms: _387  and  _388
REMARK  158  A    between atoms: _391  and  _393
REMARK  159  A    between atoms: _393  and  _394
REMARK  160  A    between atoms: _393  and  _396
REMARK  161  A    between atoms: _396  and  _397
REMARK  162  A    between atoms: _400  and  _402
REMARK  163  A    between atoms: _402  and  _403
REMARK  164  A    between atoms: _402  and  _405
REMARK  165  A    between atoms: _408  and  _410
REMARK  166  A    between atoms: _410  and  _411
REMARK  167  A    between atoms: _410  and  _413
REMARK  168  A    between atoms: _413  and  _414
REMARK  169  A    between atoms: _414  and  _415
REMARK  170  A    between atoms: _415  and  _416
REMARK  171  A    between atoms: _416  and  _417
REMARK  172  A    between atoms: _421  and  _423
REMARK  173  A    between atoms: _423  and  _424
REMARK  174  A    between atoms: _423  and  _426
REMARK  175  A    between atoms: _426  and  _427
REMARK  176  A    between atoms: _427  and  _428
REMARK  177  A    between atoms: _430  and  _432
REMARK  178  A    between atoms: _432  and  _433
REMARK  179  A    between atoms: _432  and  _435
REMARK  180  A    between atoms: _435  and  _436
REMARK  181  A    between atoms: _439  and  _441
REMARK  182  A    between atoms: _441  and  _442
REMARK  183  A    between atoms: _444  and  _446
REMARK  184  A    between atoms: _446  and  _447
REMARK  185  A    between atoms: _449  and  _451
REMARK  186  A    between atoms: _451  and  _452
REMARK  187  A    between atoms: _451  and  _454
REMARK  188  A    between atoms: _454  and  _455
REMARK  189  A    between atoms: _458  and  _460
REMARK  190  A    between atoms: _460  and  _461
REMARK  191  A    between atoms: _463  and  _465
REMARK  192  A    between atoms: _465  and  _466
REMARK  193  A    between atoms: _468  and  _470
REMARK  194  A    between atoms: _470  and  _471
REMARK  195  A    between atoms: _470  and  _473
REMARK  196  A    between atoms: _473  and  _474
REMARK  197  A    between atoms: _480  and  _482
REMARK  198  A    between atoms: _482  and  _483
REMARK  199  A    between atoms: _482  and  _485
REMARK  200  A    between atoms: _485  and  _486
REMARK  201  A    between atoms: _489  and  _491
REMARK  202  A    between atoms: _491  and  _492
REMARK  203  A    between atoms: _491  and  _494
REMARK  204  A    between atoms: _497  and  _499
REMARK  205  A    between atoms: _499  and  _500
REMARK  206  A    between atoms: _499  and  _502
REMARK  207  A    between atoms: _502  and  _503
REMARK  208  A    between atoms: _507  and  _508
REMARK  209  A    between atoms: _513  and  _515
REMARK  210  A    between atoms: _515  and  _516
REMARK  211  A    between atoms: _515  and  _518
REMARK  212  A    between atoms: _518  and  _519
REMARK  213  A    between atoms: _523  and  _524
REMARK  214  A    between atoms: _529  and  _531
REMARK  215  A    between atoms: _531  and  _532
REMARK  216  A    between atoms: _531  and  _534
REMARK  217  A    between atoms: _537  and  _539
REMARK  218  A    between atoms: _539  and  _540
REMARK  219  A    between atoms: _539  and  _542
REMARK  220  A    between atoms: _542  and  _543
REMARK  221  A    between atoms: _548  and  _550
REMARK  222  A    between atoms: _550  and  _551
REMARK  223  A    between atoms: _550  and  _553
REMARK  224  A    between atoms: _556  and  _558
REMARK  225  A    between atoms: _558  and  _559
REMARK  226  A    between atoms: _558  and  _561
REMARK  227  A    between atoms: _561  and  _562
REMARK  228  A    between atoms: _565  and  _567
REMARK  229  A    between atoms: _567  and  _568
REMARK  230  A    between atoms: _570  and  _572
REMARK  231  A    between atoms: _572  and  _573
REMARK  232  A    between atoms: _572  and  _575
REMARK  233  A    between atoms: _575  and  _576
REMARK  234  A    between atoms: _576  and  _577
REMARK  235  A    between atoms: _577  and  _578
REMARK  236  A    between atoms: _587  and  _589
REMARK  237  A    between atoms: _589  and  _590
REMARK  238  A    between atoms: _589  and  _592
REMARK  239  A    between atoms: _592  and  _593
REMARK                            x       y       z     vdW  Elec       q    Type
REMARK                         _______ _______ _______ _____ _____    ______ ____
ROOT
ATOM      1  O   HOH     1       8.928  20.654   8.051  0.00  0.00    +0.000 OA
ENDROOT
TORSDOF 0
REMARK  Name = ../refined-set-2016/2aoc/2aoc_pocket.pdb
REMARK  239 active torsions:
REMARK  status: ('A' for Active; 'I' for Inactive)
REMARK    1  A    between atoms: _1  and  _3
REMARK    2  A    between atoms: _3  and  _4
REMARK    3  A    between atoms: _3  and  _6
REMARK    4  A    between atoms: _6  and  _7
REMARK    5  A    between atoms: _7  and  _8
REMARK    6  A    between atoms: _8  and  _9
REMARK    7  A    between atoms: _18  and  _20
REMARK    8  A    between atoms: _20  and  _21
REMARK    9  A    between atoms: _20  and  _23
REMARK   10  A    between atoms: _23  and  _24
REMARK   11  A    between atoms: _27  and  _29
REMARK   12  A    between atoms: _29  and  _30
REMARK   13  A    between atoms: _29  and  _32
REMARK   14  A    between atoms: _33  and  _34
REMARK   15  A    between atoms: _37  and  _39
REMARK   16  A    between atoms: _39  and  _40
REMARK   17  A    between atoms: _39  and  _42
REMARK   18  A    between atoms: _42  and  _43
REMARK   19  A    between atoms: _46  and  _48
REMARK   20  A    between atoms: _48  and  _49
REMARK   21  A    between atoms: _48  and  _51
REMARK   22  A    between atoms: _51  and  _52
REMARK   23  A    between atoms: _55  and  _57
REMARK   24  A    between atoms: _57  and  _58
REMARK   25  A    between atoms: _57  and  _60
REMARK   26  A    between atoms: _60  and  _61
REMARK   27  A    between atoms: _64  and  _66
REMARK   28  A    between atoms: _66  and  _67
REMARK   29  A    between atoms: _66  and  _69
REMARK   30  A    between atoms: _69  and  _70
REMARK   31  A    between atoms: _73  and  _75
REMARK   32  A    between atoms: _75  and  _76
REMARK   33  A    between atoms: _78  and  _80
REMARK   34  A    between atoms: _80  and  _81
REMARK   35  A    between atoms: _84  and  _86
REMARK   36  A    between atoms: _86  and  _87
REMARK   37  A    between atoms: _86  and  _89
REMARK   38  A    between atoms: _89  and  _90
REMARK   39  A    between atoms: _93  and  _95
REMARK   40  A    between atoms: _95  and  _96
REMARK   41  A    between atoms: _95  and  _98
REMARK   42  A    between atoms: _98  and  _99
REMARK   43  A    between atoms: _102  and  _104
REMARK   44  A    between atoms: _104  and  _105
REMARK   45  A    between atoms: _104  and  _107
REMARK   46  A    between atoms: _107  and  _108
REMARK   47  A    between atoms: _111  and  _113
REMARK   48  A    between atoms: _113  and  _114
REMARK   49  A    between atoms: _113  and  _116
REMARK   50  A    between atoms: _119  and  _121
REMARK   51  A    between atoms: _121  and  _122
REMARK   52  A    between atoms: _121  and  _124
REMARK   53  A    between atoms: _124  and  _125
REMARK   54  A    between atoms: _125  and  _126
REMARK   55  A    between atoms: _126  and  _127
REMARK   56  A    between atoms: _127  and  _128
REMARK   57  A    between atoms: _132  and  _134
REMARK   58  A    between atoms: _134  and  _135
REMARK   59  A    between atoms: _134  and  _137
REMARK   60  A    between atoms: _137  and  _138
REMARK   61  A    between atoms: _138  and  _139
REMARK   62  A    between atoms: _141  and  _143
REMARK   63  A    between atoms: _143  and  _144
REMARK   64  A    between atoms: _143  and  _146
REMARK   65  A    between atoms: _146  and  _147
REMARK   66  A    between atoms: _150  and  _152
REMARK   67  A    between atoms: _152  and  _153
REMARK   68  A    between atoms: _155  and  _157
REMARK   69  A    between atoms: _157  and  _158
REMARK   70  A    between atoms: _160  and  _162
REMARK   71  A    between atoms: _162  and  _163
REMARK   72  A    between atoms: _162  and  _165
REMARK   73  A    between atoms: _165  and  _166
REMARK   74  A    between atoms: _169  and  _171
REMARK   75  A    between atoms: _171  and  _172
REMARK   76  A    between atoms: _174  and  _176
REMARK   77  A    between atoms: _176  and  _177
REMARK   78  A    between atoms: _179  and  _181
REMARK   79  A    between atoms: _181  and  _182
REMARK   80  A    between atoms: _181  and  _184
REMARK   81  A    between atoms: _184  and  _185
REMARK   82  A    between atoms: _191  and  _193
REMARK   83  A    between atoms: _193  and  _194
REMARK   84  A    between atoms: _193  and  _196
REMARK   85  A    between atoms: _196  and  _197
REMARK   86  A    between atoms: _200  and  _202
REMARK   87  A    between atoms: _202  and  _203
REMARK   88  A    between atoms: _202  and  _205
REMARK   89  A    between atoms: _208  and  _210
REMARK   90  A    between atoms: _210  and  _211
REMARK   91  A    between atoms: _210  and  _213
REMARK   92  A    between atoms: _213  and  _214
REMARK   93  A    between atoms: _218  and  _219
REMARK   94  A    between atoms: _224  and  _226
REMARK   95  A    between atoms: _226  and  _227
REMARK   96  A    between atoms: _226  and  _229
REMARK   97  A    between atoms: _229  and  _230
REMARK   98  A    between atoms: _234  and  _235
REMARK   99  A    between atoms: _240  and  _242
REMARK  100  A    between atoms: _242  and  _243
REMARK  101  A    between atoms: _242  and  _245
REMARK  102  A    between atoms: _248  and  _250
REMARK  103  A    between atoms: _250  and  _251
REMARK  104  A    between atoms: _250  and  _253
REMARK  105  A    between atoms: _253  and  _254
REMARK  106  A    between atoms: _259  and  _261
REMARK  107  A    between atoms: _261  and  _262
REMARK  108  A    between atoms: _261  and  _264
REMARK  109  A    between atoms: _267  and  _269
REMARK  110  A    between atoms: _269  and  _270
REMARK  111  A    between atoms: _269  and  _272
REMARK  112  A    between atoms: _272  and  _273
REMARK  113  A    between atoms: _276  and  _278
REMARK  114  A    between atoms: _278  and  _279
REMARK  115  A    between atoms: _281  and  _283
REMARK  116  A    between atoms: _283  and  _284
REMARK  117  A    between atoms: _283  and  _286
REMARK  118  A    between atoms: _287  and  _288
REMARK  119  A    between atoms: _288  and  _289
REMARK  120  A    between atoms: _298  and  _300
REMARK  121  A    between atoms: _300  and  _301
REMARK  122  A    between atoms: _300  and  _303
REMARK  123  A    between atoms: _303  and  _304
REMARK  124  A    between atoms: _309  and  _311
REMARK  125  A    between atoms: _311  and  _312
REMARK  126  A    between atoms: _311  and  _314
REMARK  127  A    between atoms: _314  and  _315
REMARK  128  A    between atoms: _315  and  _316
REMARK  129  A    between atoms: _316  and  _317
REMARK  130  A    between atoms: _326  and  _328
REMARK  131  A    between atoms: _328  and  _329
REMARK  132  A    between atoms: _328  and  _331
REMARK  133  A    between atoms: _331  and  _332
REMARK  134  A    between atoms: _335  and  _337
REMARK  135  A    between atoms: _337  and  _338
REMARK  136  A    between atoms: _337  and  _340
REMARK  137  A    between atoms: _340  and  _341
REMARK  138  A    between atoms: _344  and  _346
REMARK  139  A    between atoms: _346  and  _347
REMARK  140  A    between atoms: _346  and  _349
REMARK  141  A    between atoms: _349  and  _350
REMARK  142  A    between atoms: _353  and  _355
REMARK  143  A    between atoms: _355  and  _356
REMARK  144  A    between atoms: _355  and  _358
REMARK  145  A    between atoms: _358  and  _359
REMARK  146  A    between atoms: _362  and  _364
REMARK  147  A    between atoms: _364  and  _365
REMARK  148  A    between atoms: _367  and  _369
REMARK  149  A    between atoms: _369  and  _370
REMARK  150  A    between atoms: _373  and  _375
REMARK  151  A    between atoms: _375  and  _376
REMARK  152  A    between atoms: _375  and  _378
REMARK  153  A    between atoms: _378  and  _379
REMARK  154  A    between atoms: _382  and  _384
REMARK  155  A    between atoms: _384  and  _385
REMARK  156  A    between atoms: _384  and  _387
REMARK  157  A    between atoms: _387  and  _388
REMARK  158  A    between atoms: _391  and  _393
REMARK  159  A    between atoms: _393  and  _394
REMARK  160  A    between atoms: _393  and  _396
REMARK  161  A    between atoms: _396  and  _397
REMARK  162  A    between atoms: _400  and  _402
REMARK  163  A    between atoms: _402  and  _403
REMARK  164  A    between atoms: _402  and  _405
REMARK  165  A    between atoms: _408  and  _410
REMARK  166  A    between atoms: _410  and  _411
REMARK  167  A    between atoms: _410  and  _413
REMARK  168  A    between atoms: _413  and  _414
REMARK  169  A    between atoms: _414  and  _415
REMARK  170  A    between atoms: _415  and  _416
REMARK  171  A    between atoms: _416  and  _417
REMARK  172  A    between atoms: _421  and  _423
REMARK  173  A    between atoms: _423  and  _424
REMARK  174  A    between atoms: _423  and  _426
REMARK  175  A    between atoms: _426  and  _427
REMARK  176  A    between atoms: _427  and  _428
REMARK  177  A    between atoms: _430  and  _432
REMARK  178  A    between atoms: _432  and  _433
REMARK  179  A    between atoms: _432  and  _435
REMARK  180  A    between atoms: _435  and  _436
REMARK  181  A    between atoms: _439  and  _441
REMARK  182  A    between atoms: _441  and  _442
REMARK  183  A    between atoms: _444  and  _446
REMARK  184  A    between atoms: _446  and  _447
REMARK  185  A    between atoms: _449  and  _451
REMARK  186  A    between atoms: _451  and  _452
REMARK  187  A    between atoms: _451  and  _454
REMARK  188  A    between atoms: _454  and  _455
REMARK  189  A    between atoms: _458  and  _460
REMARK  190  A    between atoms: _460  and  _461
REMARK  191  A    between atoms: _463  and  _465
REMARK  192  A    between atoms: _465  and  _466
REMARK  193  A    between atoms: _468  and  _470
REMARK  194  A    between atoms: _470  and  _471
REMARK  195  A    between atoms: _470  and  _473
REMARK  196  A    between atoms: _473  and  _474
REMARK  197  A    between atoms: _480  and  _482
REMARK  198  A    between atoms: _482  and  _483
REMARK  199  A    between atoms: _482  and  _485
REMARK  200  A    between atoms: _485  and  _486
REMARK  201  A    between atoms: _489  and  _491
REMARK  202  A    between atoms: _491  and  _492
REMARK  203  A    between atoms: _491  and  _494
REMARK  204  A    between atoms: _497  and  _499
REMARK  205  A    between atoms: _499  and  _500
REMARK  206  A    between atoms: _499  and  _502
REMARK  207  A    between atoms: _502  and  _503
REMARK  208  A    between atoms: _507  and  _508
REMARK  209  A    between atoms: _513  and  _515
REMARK  210  A    between atoms: _515  and  _516
REMARK  211  A    between atoms: _515  and  _518
REMARK  212  A    between atoms: _518  and  _519
REMARK  213  A    between atoms: _523  and  _524
REMARK  214  A    between atoms: _529  and  _531
REMARK  215  A    between atoms: _531  and  _532
REMARK  216  A    between atoms: _531  and  _534
REMARK  217  A    between atoms: _537  and  _539
REMARK  218  A    between atoms: _539  and  _540
REMARK  219  A    between atoms: _539  and  _542
REMARK  220  A    between atoms: _542  and  _543
REMARK  221  A    between atoms: _548  and  _550
REMARK  222  A    between atoms: _550  and  _551
REMARK  223  A    between atoms: _550  and  _553
REMARK  224  A    between atoms: _556  and  _558
REMARK  225  A    between atoms: _558  and  _559
REMARK  226  A    between atoms: _558  and  _561
REMARK  227  A    between atoms: _561  and  _562
REMARK  228  A    between atoms: _565  and  _567
REMARK  229  A    between atoms: _567  and  _568
REMARK  230  A    between atoms: _570  and  _572
REMARK  231  A    between atoms: _572  and  _573
REMARK  232  A    between atoms: _572  and  _575
REMARK  233  A    between atoms: _575  and  _576
REMARK  234  A    between atoms: _576  and  _577
REMARK  235  A    between atoms: _577  and  _578
REMARK  236  A    between atoms: _587  and  _589
REMARK  237  A    between atoms: _589  and  _590
REMARK  238  A    between atoms: _589  and  _592
REMARK  239  A    between atoms: _592  and  _593
REMARK                            x       y       z     vdW  Elec       q    Type
REMARK                         _______ _______ _______ _____ _____    ______ ____
ROOT
ATOM      1  O   HOH     1       7.967  23.982   5.158  0.00  0.00    +0.000 OA
ENDROOT
TORSDOF 0
REMARK  Name = ../refined-set-2016/2aoc/2aoc_pocket.pdb
REMARK  239 active torsions:
REMARK  status: ('A' for Active; 'I' for Inactive)
REMARK    1  A    between atoms: _1  and  _3
REMARK    2  A    between atoms: _3  and  _4
REMARK    3  A    between atoms: _3  and  _6
REMARK    4  A    between atoms: _6  and  _7
REMARK    5  A    between atoms: _7  and  _8
REMARK    6  A    between atoms: _8  and  _9
REMARK    7  A    between atoms: _18  and  _20
REMARK    8  A    between atoms: _20  and  _21
REMARK    9  A    between atoms: _20  and  _23
REMARK   10  A    between atoms: _23  and  _24
REMARK   11  A    between atoms: _27  and  _29
REMARK   12  A    between atoms: _29  and  _30
REMARK   13  A    between atoms: _29  and  _32
REMARK   14  A    between atoms: _33  and  _34
REMARK   15  A    between atoms: _37  and  _39
REMARK   16  A    between atoms: _39  and  _40
REMARK   17  A    between atoms: _39  and  _42
REMARK   18  A    between atoms: _42  and  _43
REMARK   19  A    between atoms: _46  and  _48
REMARK   20  A    between atoms: _48  and  _49
REMARK   21  A    between atoms: _48  and  _51
REMARK   22  A    between atoms: _51  and  _52
REMARK   23  A    between atoms: _55  and  _57
REMARK   24  A    between atoms: _57  and  _58
REMARK   25  A    between atoms: _57  and  _60
REMARK   26  A    between atoms: _60  and  _61
REMARK   27  A    between atoms: _64  and  _66
REMARK   28  A    between atoms: _66  and  _67
REMARK   29  A    between atoms: _66  and  _69
REMARK   30  A    between atoms: _69  and  _70
REMARK   31  A    between atoms: _73  and  _75
REMARK   32  A    between atoms: _75  and  _76
REMARK   33  A    between atoms: _78  and  _80
REMARK   34  A    between atoms: _80  and  _81
REMARK   35  A    between atoms: _84  and  _86
REMARK   36  A    between atoms: _86  and  _87
REMARK   37  A    between atoms: _86  and  _89
REMARK   38  A    between atoms: _89  and  _90
REMARK   39  A    between atoms: _93  and  _95
REMARK   40  A    between atoms: _95  and  _96
REMARK   41  A    between atoms: _95  and  _98
REMARK   42  A    between atoms: _98  and  _99
REMARK   43  A    between atoms: _102  and  _104
REMARK   44  A    between atoms: _104  and  _105
REMARK   45  A    between atoms: _104  and  _107
REMARK   46  A    between atoms: _107  and  _108
REMARK   47  A    between atoms: _111  and  _113
REMARK   48  A    between atoms: _113  and  _114
REMARK   49  A    between atoms: _113  and  _116
REMARK   50  A    between atoms: _119  and  _121
REMARK   51  A    between atoms: _121  and  _122
REMARK   52  A    between atoms: _121  and  _124
REMARK   53  A    between atoms: _124  and  _125
REMARK   54  A    between atoms: _125  and  _126
REMARK   55  A    between atoms: _126  and  _127
REMARK   56  A    between atoms: _127  and  _128
REMARK   57  A    between atoms: _132  and  _134
REMARK   58  A    between atoms: _134  and  _135
REMARK   59  A    between atoms: _134  and  _137
REMARK   60  A    between atoms: _137  and  _138
REMARK   61  A    between atoms: _138  and  _139
REMARK   62  A    between atoms: _141  and  _143
REMARK   63  A    between atoms: _143  and  _144
REMARK   64  A    between atoms: _143  and  _146
REMARK   65  A    between atoms: _146  and  _147
REMARK   66  A    between atoms: _150  and  _152
REMARK   67  A    between atoms: _152  and  _153
REMARK   68  A    between atoms: _155  and  _157
REMARK   69  A    between atoms: _157  and  _158
REMARK   70  A    between atoms: _160  and  _162
REMARK   71  A    between atoms: _162  and  _163
REMARK   72  A    between atoms: _162  and  _165
REMARK   73  A    between atoms: _165  and  _166
REMARK   74  A    between atoms: _169  and  _171
REMARK   75  A    between atoms: _171  and  _172
REMARK   76  A    between atoms: _174  and  _176
REMARK   77  A    between atoms: _176  and  _177
REMARK   78  A    between atoms: _179  and  _181
REMARK   79  A    between atoms: _181  and  _182
REMARK   80  A    between atoms: _181  and  _184
REMARK   81  A    between atoms: _184  and  _185
REMARK   82  A    between atoms: _191  and  _193
REMARK   83  A    between atoms: _193  and  _194
REMARK   84  A    between atoms: _193  and  _196
REMARK   85  A    between atoms: _196  and  _197
REMARK   86  A    between atoms: _200  and  _202
REMARK   87  A    between atoms: _202  and  _203
REMARK   88  A    between atoms: _202  and  _205
REMARK   89  A    between atoms: _208  and  _210
REMARK   90  A    between atoms: _210  and  _211
REMARK   91  A    between atoms: _210  and  _213
REMARK   92  A    between atoms: _213  and  _214
REMARK   93  A    between atoms: _218  and  _219
REMARK   94  A    between atoms: _224  and  _226
REMARK   95  A    between atoms: _226  and  _227
REMARK   96  A    between atoms: _226  and  _229
REMARK   97  A    between atoms: _229  and  _230
REMARK   98  A    between atoms: _234  and  _235
REMARK   99  A    between atoms: _240  and  _242
REMARK  100  A    between atoms: _242  and  _243
REMARK  101  A    between atoms: _242  and  _245
REMARK  102  A    between atoms: _248  and  _250
REMARK  103  A    between atoms: _250  and  _251
REMARK  104  A    between atoms: _250  and  _253
REMARK  105  A    between atoms: _253  and  _254
REMARK  106  A    between atoms: _259  and  _261
REMARK  107  A    between atoms: _261  and  _262
REMARK  108  A    between atoms: _261  and  _264
REMARK  109  A    between atoms: _267  and  _269
REMARK  110  A    between atoms: _269  and  _270
REMARK  111  A    between atoms: _269  and  _272
REMARK  112  A    between atoms: _272  and  _273
REMARK  113  A    between atoms: _276  and  _278
REMARK  114  A    between atoms: _278  and  _279
REMARK  115  A    between atoms: _281  and  _283
REMARK  116  A    between atoms: _283  and  _284
REMARK  117  A    between atoms: _283  and  _286
REMARK  118  A    between atoms: _287  and  _288
REMARK  119  A    between atoms: _288  and  _289
REMARK  120  A    between atoms: _298  and  _300
REMARK  121  A    between atoms: _300  and  _301
REMARK  122  A    between atoms: _300  and  _303
REMARK  123  A    between atoms: _303  and  _304
REMARK  124  A    between atoms: _309  and  _311
REMARK  125  A    between atoms: _311  and  _312
REMARK  126  A    between atoms: _311  and  _314
REMARK  127  A    between atoms: _314  and  _315
REMARK  128  A    between atoms: _315  and  _316
REMARK  129  A    between atoms: _316  and  _317
REMARK  130  A    between atoms: _326  and  _328
REMARK  131  A    between atoms: _328  and  _329
REMARK  132  A    between atoms: _328  and  _331
REMARK  133  A    between atoms: _331  and  _332
REMARK  134  A    between atoms: _335  and  _337
REMARK  135  A    between atoms: _337  and  _338
REMARK  136  A    between atoms: _337  and  _340
REMARK  137  A    between atoms: _340  and  _341
REMARK  138  A    between atoms: _344  and  _346
REMARK  139  A    between atoms: _346  and  _347
REMARK  140  A    between atoms: _346  and  _349
REMARK  141  A    between atoms: _349  and  _350
REMARK  142  A    between atoms: _353  and  _355
REMARK  143  A    between atoms: _355  and  _356
REMARK  144  A    between atoms: _355  and  _358
REMARK  145  A    between atoms: _358  and  _359
REMARK  146  A    between atoms: _362  and  _364
REMARK  147  A    between atoms: _364  and  _365
REMARK  148  A    between atoms: _367  and  _369
REMARK  149  A    between atoms: _369  and  _370
REMARK  150  A    between atoms: _373  and  _375
REMARK  151  A    between atoms: _375  and  _376
REMARK  152  A    between atoms: _375  and  _378
REMARK  153  A    between atoms: _378  and  _379
REMARK  154  A    between atoms: _382  and  _384
REMARK  155  A    between atoms: _384  and  _385
REMARK  156  A    between atoms: _384  and  _387
REMARK  157  A    between atoms: _387  and  _388
REMARK  158  A    between atoms: _391  and  _393
REMARK  159  A    between atoms: _393  and  _394
REMARK  160  A    between atoms: _393  and  _396
REMARK  161  A    between atoms: _396  and  _397
REMARK  162  A    between atoms: _400  and  _402
REMARK  163  A    between atoms: _402  and  _403
REMARK  164  A    between atoms: _402  and  _405
REMARK  165  A    between atoms: _408  and  _410
REMARK  166  A    between atoms: _410  and  _411
REMARK  167  A    between atoms: _410  and  _413
REMARK  168  A    between atoms: _413  and  _414
REMARK  169  A    between atoms: _414  and  _415
REMARK  170  A    between atoms: _415  and  _416
REMARK  171  A    between atoms: _416  and  _417
REMARK  172  A    between atoms: _421  and  _423
REMARK  173  A    between atoms: _423  and  _424
REMARK  174  A    between atoms: _423  and  _426
REMARK  175  A    between atoms: _426  and  _427
REMARK  176  A    between atoms: _427  and  _428
REMARK  177  A    between atoms: _430  and  _432
REMARK  178  A    between atoms: _432  and  _433
REMARK  179  A    between atoms: _432  and  _435
REMARK  180  A    between atoms: _435  and  _436
REMARK  181  A    between atoms: _439  and  _441
REMARK  182  A    between atoms: _441  and  _442
REMARK  183  A    between atoms: _444  and  _446
REMARK  184  A    between atoms: _446  and  _447
REMARK  185  A    between atoms: _449  and  _451
REMARK  186  A    between atoms: _451  and  _452
REMARK  187  A    between atoms: _451  and  _454
REMARK  188  A    between atoms: _454  and  _455
REMARK  189  A    between atoms: _458  and  _460
REMARK  190  A    between atoms: _460  and  _461
REMARK  191  A    between atoms: _463  and  _465
REMARK  192  A    between atoms: _465  and  _466
REMARK  193  A    between atoms: _468  and  _470
REMARK  194  A    between atoms: _470  and  _471
REMARK  195  A    between atoms: _470  and  _473
REMARK  196  A    between atoms: _473  and  _474
REMARK  197  A    between atoms: _480  and  _482
REMARK  198  A    between atoms: _482  and  _483
REMARK  199  A    between atoms: _482  and  _485
REMARK  200  A    between atoms: _485  and  _486
REMARK  201  A    between atoms: _489  and  _491
REMARK  202  A    between atoms: _491  and  _492
REMARK  203  A    between atoms: _491  and  _494
REMARK  204  A    between atoms: _497  and  _499
REMARK  205  A    between atoms: _499  and  _500
REMARK  206  A    between atoms: _499  and  _502
REMARK  207  A    between atoms: _502  and  _503
REMARK  208  A    between atoms: _507  and  _508
REMARK  209  A    between atoms: _513  and  _515
REMARK  210  A    between atoms: _515  and  _516
REMARK  211  A    between atoms: _515  and  _518
REMARK  212  A    between atoms: _518  and  _519
REMARK  213  A    between atoms: _523  and  _524
REMARK  214  A    between atoms: _529  and  _531
REMARK  215  A    between atoms: _531  and  _532
REMARK  216  A    between atoms: _531  and  _534
REMARK  217  A    between atoms: _537  and  _539
REMARK  218  A    between atoms: _539  and  _540
REMARK  219  A    between atoms: _539  and  _542
REMARK  220  A    between atoms: _542  and  _543
REMARK  221  A    between atoms: _548  and  _550
REMARK  222  A    between atoms: _550  and  _551
REMARK  223  A    between atoms: _550  and  _553
REMARK  224  A    between atoms: _556  and  _558
REMARK  225  A    between atoms: _558  and  _559
REMARK  226  A    between atoms: _558  and  _561
REMARK  227  A    between atoms: _561  and  _562
REMARK  228  A    between atoms: _565  and  _567
REMARK  229  A    between atoms: _567  and  _568
REMARK  230  A    between atoms: _570  and  _572
REMARK  231  A    between atoms: _572  and  _573
REMARK  232  A    between atoms: _572  and  _575
REMARK  233  A    between atoms: _575  and  _576
REMARK  234  A    between atoms: _576  and  _577
REMARK  235  A    between atoms: _577  and  _578
REMARK  236  A    between atoms: _587  and  _589
REMARK  237  A    between atoms: _589  and  _590
REMARK  238  A    between atoms: _589  and  _592
REMARK  239  A    between atoms: _592  and  _593
REMARK                            x       y       z     vdW  Elec       q    Type
REMARK                         _______ _______ _______ _____ _____    ______ ____
ROOT
ATOM      1  O   HOH     1       7.231  23.903  18.468  0.00  0.00    +0.000 OA
ENDROOT
TORSDOF 0
REMARK  Name = ../refined-set-2016/2aoc/2aoc_pocket.pdb
REMARK  239 active torsions:
REMARK  status: ('A' for Active; 'I' for Inactive)
REMARK    1  A    between atoms: _1  and  _3
REMARK    2  A    between atoms: _3  and  _4
REMARK    3  A    between atoms: _3  and  _6
REMARK    4  A    between atoms: _6  and  _7
REMARK    5  A    between atoms: _7  and  _8
REMARK    6  A    between atoms: _8  and  _9
REMARK    7  A    between atoms: _18  and  _20
REMARK    8  A    between atoms: _20  and  _21
REMARK    9  A    between atoms: _20  and  _23
REMARK   10  A    between atoms: _23  and  _24
REMARK   11  A    between atoms: _27  and  _29
REMARK   12  A    between atoms: _29  and  _30
REMARK   13  A    between atoms: _29  and  _32
REMARK   14  A    between atoms: _33  and  _34
REMARK   15  A    between atoms: _37  and  _39
REMARK   16  A    between atoms: _39  and  _40
REMARK   17  A    between atoms: _39  and  _42
REMARK   18  A    between atoms: _42  and  _43
REMARK   19  A    between atoms: _46  and  _48
REMARK   20  A    between atoms: _48  and  _49
REMARK   21  A    between atoms: _48  and  _51
REMARK   22  A    between atoms: _51  and  _52
REMARK   23  A    between atoms: _55  and  _57
REMARK   24  A    between atoms: _57  and  _58
REMARK   25  A    between atoms: _57  and  _60
REMARK   26  A    between atoms: _60  and  _61
REMARK   27  A    between atoms: _64  and  _66
REMARK   28  A    between atoms: _66  and  _67
REMARK   29  A    between atoms: _66  and  _69
REMARK   30  A    between atoms: _69  and  _70
REMARK   31  A    between atoms: _73  and  _75
REMARK   32  A    between atoms: _75  and  _76
REMARK   33  A    between atoms: _78  and  _80
REMARK   34  A    between atoms: _80  and  _81
REMARK   35  A    between atoms: _84  and  _86
REMARK   36  A    between atoms: _86  and  _87
REMARK   37  A    between atoms: _86  and  _89
REMARK   38  A    between atoms: _89  and  _90
REMARK   39  A    between atoms: _93  and  _95
REMARK   40  A    between atoms: _95  and  _96
REMARK   41  A    between atoms: _95  and  _98
REMARK   42  A    between atoms: _98  and  _99
REMARK   43  A    between atoms: _102  and  _104
REMARK   44  A    between atoms: _104  and  _105
REMARK   45  A    between atoms: _104  and  _107
REMARK   46  A    between atoms: _107  and  _108
REMARK   47  A    between atoms: _111  and  _113
REMARK   48  A    between atoms: _113  and  _114
REMARK   49  A    between atoms: _113  and  _116
REMARK   50  A    between atoms: _119  and  _121
REMARK   51  A    between atoms: _121  and  _122
REMARK   52  A    between atoms: _121  and  _124
REMARK   53  A    between atoms: _124  and  _125
REMARK   54  A    between atoms: _125  and  _126
REMARK   55  A    between atoms: _126  and  _127
REMARK   56  A    between atoms: _127  and  _128
REMARK   57  A    between atoms: _132  and  _134
REMARK   58  A    between atoms: _134  and  _135
REMARK   59  A    between atoms: _134  and  _137
REMARK   60  A    between atoms: _137  and  _138
REMARK   61  A    between atoms: _138  and  _139
REMARK   62  A    between atoms: _141  and  _143
REMARK   63  A    between atoms: _143  and  _144
REMARK   64  A    between atoms: _143  and  _146
REMARK   65  A    between atoms: _146  and  _147
REMARK   66  A    between atoms: _150  and  _152
REMARK   67  A    between atoms: _152  and  _153
REMARK   68  A    between atoms: _155  and  _157
REMARK   69  A    between atoms: _157  and  _158
REMARK   70  A    between atoms: _160  and  _162
REMARK   71  A    between atoms: _162  and  _163
REMARK   72  A    between atoms: _162  and  _165
REMARK   73  A    between atoms: _165  and  _166
REMARK   74  A    between atoms: _169  and  _171
REMARK   75  A    between atoms: _171  and  _172
REMARK   76  A    between atoms: _174  and  _176
REMARK   77  A    between atoms: _176  and  _177
REMARK   78  A    between atoms: _179  and  _181
REMARK   79  A    between atoms: _181  and  _182
REMARK   80  A    between atoms: _181  and  _184
REMARK   81  A    between atoms: _184  and  _185
REMARK   82  A    between atoms: _191  and  _193
REMARK   83  A    between atoms: _193  and  _194
REMARK   84  A    between atoms: _193  and  _196
REMARK   85  A    between atoms: _196  and  _197
REMARK   86  A    between atoms: _200  and  _202
REMARK   87  A    between atoms: _202  and  _203
REMARK   88  A    between atoms: _202  and  _205
REMARK   89  A    between atoms: _208  and  _210
REMARK   90  A    between atoms: _210  and  _211
REMARK   91  A    between atoms: _210  and  _213
REMARK   92  A    between atoms: _213  and  _214
REMARK   93  A    between atoms: _218  and  _219
REMARK   94  A    between atoms: _224  and  _226
REMARK   95  A    between atoms: _226  and  _227
REMARK   96  A    between atoms: _226  and  _229
REMARK   97  A    between atoms: _229  and  _230
REMARK   98  A    between atoms: _234  and  _235
REMARK   99  A    between atoms: _240  and  _242
REMARK  100  A    between atoms: _242  and  _243
REMARK  101  A    between atoms: _242  and  _245
REMARK  102  A    between atoms: _248  and  _250
REMARK  103  A    between atoms: _250  and  _251
REMARK  104  A    between atoms: _250  and  _253
REMARK  105  A    between atoms: _253  and  _254
REMARK  106  A    between atoms: _259  and  _261
REMARK  107  A    between atoms: _261  and  _262
REMARK  108  A    between atoms: _261  and  _264
REMARK  109  A    between atoms: _267  and  _269
REMARK  110  A    between atoms: _269  and  _270
REMARK  111  A    between atoms: _269  and  _272
REMARK  112  A    between atoms: _272  and  _273
REMARK  113  A    between atoms: _276  and  _278
REMARK  114  A    between atoms: _278  and  _279
REMARK  115  A    between atoms: _281  and  _283
REMARK  116  A    between atoms: _283  and  _284
REMARK  117  A    between atoms: _283  and  _286
REMARK  118  A    between atoms: _287  and  _288
REMARK  119  A    between atoms: _288  and  _289
REMARK  120  A    between atoms: _298  and  _300
REMARK  121  A    between atoms: _300  and  _301
REMARK  122  A    between atoms: _300  and  _303
REMARK  123  A    between atoms: _303  and  _304
REMARK  124  A    between atoms: _309  and  _311
REMARK  125  A    between atoms: _311  and  _312
REMARK  126  A    between atoms: _311  and  _314
REMARK  127  A    between atoms: _314  and  _315
REMARK  128  A    between atoms: _315  and  _316
REMARK  129  A    between atoms: _316  and  _317
REMARK  130  A    between atoms: _326  and  _328
REMARK  131  A    between atoms: _328  and  _329
REMARK  132  A    between atoms: _328  and  _331
REMARK  133  A    between atoms: _331  and  _332
REMARK  134  A    between atoms: _335  and  _337
REMARK  135  A    between atoms: _337  and  _338
REMARK  136  A    between atoms: _337  and  _340
REMARK  137  A    between atoms: _340  and  _341
REMARK  138  A    between atoms: _344  and  _346
REMARK  139  A    between atoms: _346  and  _347
REMARK  140  A    between atoms: _346  and  _349
REMARK  141  A    between atoms: _349  and  _350
REMARK  142  A    between atoms: _353  and  _355
REMARK  143  A    between atoms: _355  and  _356
REMARK  144  A    between atoms: _355  and  _358
REMARK  145  A    between atoms: _358  and  _359
REMARK  146  A    between atoms: _362  and  _364
REMARK  147  A    between atoms: _364  and  _365
REMARK  148  A    between atoms: _367  and  _369
REMARK  149  A    between atoms: _369  and  _370
REMARK  150  A    between atoms: _373  and  _375
REMARK  151  A    between atoms: _375  and  _376
REMARK  152  A    between atoms: _375  and  _378
REMARK  153  A    between atoms: _378  and  _379
REMARK  154  A    between atoms: _382  and  _384
REMARK  155  A    between atoms: _384  and  _385
REMARK  156  A    between atoms: _384  and  _387
REMARK  157  A    between atoms: _387  and  _388
REMARK  158  A    between atoms: _391  and  _393
REMARK  159  A    between atoms: _393  and  _394
REMARK  160  A    between atoms: _393  and  _396
REMARK  161  A    between atoms: _396  and  _397
REMARK  162  A    between atoms: _400  and  _402
REMARK  163  A    between atoms: _402  and  _403
REMARK  164  A    between atoms: _402  and  _405
REMARK  165  A    between atoms: _408  and  _410
REMARK  166  A    between atoms: _410  and  _411
REMARK  167  A    between atoms: _410  and  _413
REMARK  168  A    between atoms: _413  and  _414
REMARK  169  A    between atoms: _414  and  _415
REMARK  170  A    between atoms: _415  and  _416
REMARK  171  A    between atoms: _416  and  _417
REMARK  172  A    between atoms: _421  and  _423
REMARK  173  A    between atoms: _423  and  _424
REMARK  174  A    between atoms: _423  and  _426
REMARK  175  A    between atoms: _426  and  _427
REMARK  176  A    between atoms: _427  and  _428
REMARK  177  A    between atoms: _430  and  _432
REMARK  178  A    between atoms: _432  and  _433
REMARK  179  A    between atoms: _432  and  _435
REMARK  180  A    between atoms: _435  and  _436
REMARK  181  A    between atoms: _439  and  _441
REMARK  182  A    between atoms: _441  and  _442
REMARK  183  A    between atoms: _444  and  _446
REMARK  184  A    between atoms: _446  and  _447
REMARK  185  A    between atoms: _449  and  _451
REMARK  186  A    between atoms: _451  and  _452
REMARK  187  A    between atoms: _451  and  _454
REMARK  188  A    between atoms: _454  and  _455
REMARK  189  A    between atoms: _458  and  _460
REMARK  190  A    between atoms: _460  and  _461
REMARK  191  A    between atoms: _463  and  _465
REMARK  192  A    between atoms: _465  and  _466
REMARK  193  A    between atoms: _468  and  _470
REMARK  194  A    between atoms: _470  and  _471
REMARK  195  A    between atoms: _470  and  _473
REMARK  196  A    between atoms: _473  and  _474
REMARK  197  A    between atoms: _480  and  _482
REMARK  198  A    between atoms: _482  and  _483
REMARK  199  A    between atoms: _482  and  _485
REMARK  200  A    between atoms: _485  and  _486
REMARK  201  A    between atoms: _489  and  _491
REMARK  202  A    between atoms: _491  and  _492
REMARK  203  A    between atoms: _491  and  _494
REMARK  204  A    between atoms: _497  and  _499
REMARK  205  A    between atoms: _499  and  _500
REMARK  206  A    between atoms: _499  and  _502
REMARK  207  A    between atoms: _502  and  _503
REMARK  208  A    between atoms: _507  and  _508
REMARK  209  A    between atoms: _513  and  _515
REMARK  210  A    between atoms: _515  and  _516
REMARK  211  A    between atoms: _515  and  _518
REMARK  212  A    between atoms: _518  and  _519
REMARK  213  A    between atoms: _523  and  _524
REMARK  214  A    between atoms: _529  and  _531
REMARK  215  A    between atoms: _531  and  _532
REMARK  216  A    between atoms: _531  and  _534
REMARK  217  A    between atoms: _537  and  _539
REMARK  218  A    between atoms: _539  and  _540
REMARK  219  A    between atoms: _539  and  _542
REMARK  220  A    between atoms: _542  and  _543
REMARK  221  A    between atoms: _548  and  _550
REMARK  222  A    between atoms: _550  and  _551
REMARK  223  A    between atoms: _550  and  _553
REMARK  224  A    between atoms: _556  and  _558
REMARK  225  A    between atoms: _558  and  _559
REMARK  226  A    between atoms: _558  and  _561
REMARK  227  A    between atoms: _561  and  _562
REMARK  228  A    between atoms: _565  and  _567
REMARK  229  A    between atoms: _567  and  _568
REMARK  230  A    between atoms: _570  and  _572
REMARK  231  A    between atoms: _572  and  _573
REMARK  232  A    between atoms: _572  and  _575
REMARK  233  A    between atoms: _575  and  _576
REMARK  234  A    between atoms: _576  and  _577
REMARK  235  A    between atoms: _577  and  _578
REMARK  236  A    between atoms: _587  and  _589
REMARK  237  A    between atoms: _589  and  _590
REMARK  238  A    between atoms: _589  and  _592
REMARK  239  A    between atoms: _592  and  _593
REMARK                            x       y       z     vdW  Elec       q    Type
REMARK                         _______ _______ _______ _____ _____    ______ ____
ROOT
ATOM      1  O   HOH     1       8.558  21.881  16.988  0.00  0.00    +0.000 OA
ENDROOT
TORSDOF 0
REMARK  Name = ../refined-set-2016/2aoc/2aoc_pocket.pdb
REMARK  239 active torsions:
REMARK  status: ('A' for Active; 'I' for Inactive)
REMARK    1  A    between atoms: _1  and  _3
REMARK    2  A    between atoms: _3  and  _4
REMARK    3  A    between atoms: _3  and  _6
REMARK    4  A    between atoms: _6  and  _7
REMARK    5  A    between atoms: _7  and  _8
REMARK    6  A    between atoms: _8  and  _9
REMARK    7  A    between atoms: _18  and  _20
REMARK    8  A    between atoms: _20  and  _21
REMARK    9  A    between atoms: _20  and  _23
REMARK   10  A    between atoms: _23  and  _24
REMARK   11  A    between atoms: _27  and  _29
REMARK   12  A    between atoms: _29  and  _30
REMARK   13  A    between atoms: _29  and  _32
REMARK   14  A    between atoms: _33  and  _34
REMARK   15  A    between atoms: _37  and  _39
REMARK   16  A    between atoms: _39  and  _40
REMARK   17  A    between atoms: _39  and  _42
REMARK   18  A    between atoms: _42  and  _43
REMARK   19  A    between atoms: _46  and  _48
REMARK   20  A    between atoms: _48  and  _49
REMARK   21  A    between atoms: _48  and  _51
REMARK   22  A    between atoms: _51  and  _52
REMARK   23  A    between atoms: _55  and  _57
REMARK   24  A    between atoms: _57  and  _58
REMARK   25  A    between atoms: _57  and  _60
REMARK   26  A    between atoms: _60  and  _61
REMARK   27  A    between atoms: _64  and  _66
REMARK   28  A    between atoms: _66  and  _67
REMARK   29  A    between atoms: _66  and  _69
REMARK   30  A    between atoms: _69  and  _70
REMARK   31  A    between atoms: _73  and  _75
REMARK   32  A    between atoms: _75  and  _76
REMARK   33  A    between atoms: _78  and  _80
REMARK   34  A    between atoms: _80  and  _81
REMARK   35  A    between atoms: _84  and  _86
REMARK   36  A    between atoms: _86  and  _87
REMARK   37  A    between atoms: _86  and  _89
REMARK   38  A    between atoms: _89  and  _90
REMARK   39  A    between atoms: _93  and  _95
REMARK   40  A    between atoms: _95  and  _96
REMARK   41  A    between atoms: _95  and  _98
REMARK   42  A    between atoms: _98  and  _99
REMARK   43  A    between atoms: _102  and  _104
REMARK   44  A    between atoms: _104  and  _105
REMARK   45  A    between atoms: _104  and  _107
REMARK   46  A    between atoms: _107  and  _108
REMARK   47  A    between atoms: _111  and  _113
REMARK   48  A    between atoms: _113  and  _114
REMARK   49  A    between atoms: _113  and  _116
REMARK   50  A    between atoms: _119  and  _121
REMARK   51  A    between atoms: _121  and  _122
REMARK   52  A    between atoms: _121  and  _124
REMARK   53  A    between atoms: _124  and  _125
REMARK   54  A    between atoms: _125  and  _126
REMARK   55  A    between atoms: _126  and  _127
REMARK   56  A    between atoms: _127  and  _128
REMARK   57  A    between atoms: _132  and  _134
REMARK   58  A    between atoms: _134  and  _135
REMARK   59  A    between atoms: _134  and  _137
REMARK   60  A    between atoms: _137  and  _138
REMARK   61  A    between atoms: _138  and  _139
REMARK   62  A    between atoms: _141  and  _143
REMARK   63  A    between atoms: _143  and  _144
REMARK   64  A    between atoms: _143  and  _146
REMARK   65  A    between atoms: _146  and  _147
REMARK   66  A    between atoms: _150  and  _152
REMARK   67  A    between atoms: _152  and  _153
REMARK   68  A    between atoms: _155  and  _157
REMARK   69  A    between atoms: _157  and  _158
REMARK   70  A    between atoms: _160  and  _162
REMARK   71  A    between atoms: _162  and  _163
REMARK   72  A    between atoms: _162  and  _165
REMARK   73  A    between atoms: _165  and  _166
REMARK   74  A    between atoms: _169  and  _171
REMARK   75  A    between atoms: _171  and  _172
REMARK   76  A    between atoms: _174  and  _176
REMARK   77  A    between atoms: _176  and  _177
REMARK   78  A    between atoms: _179  and  _181
REMARK   79  A    between atoms: _181  and  _182
REMARK   80  A    between atoms: _181  and  _184
REMARK   81  A    between atoms: _184  and  _185
REMARK   82  A    between atoms: _191  and  _193
REMARK   83  A    between atoms: _193  and  _194
REMARK   84  A    between atoms: _193  and  _196
REMARK   85  A    between atoms: _196  and  _197
REMARK   86  A    between atoms: _200  and  _202
REMARK   87  A    between atoms: _202  and  _203
REMARK   88  A    between atoms: _202  and  _205
REMARK   89  A    between atoms: _208  and  _210
REMARK   90  A    between atoms: _210  and  _211
REMARK   91  A    between atoms: _210  and  _213
REMARK   92  A    between atoms: _213  and  _214
REMARK   93  A    between atoms: _218  and  _219
REMARK   94  A    between atoms: _224  and  _226
REMARK   95  A    between atoms: _226  and  _227
REMARK   96  A    between atoms: _226  and  _229
REMARK   97  A    between atoms: _229  and  _230
REMARK   98  A    between atoms: _234  and  _235
REMARK   99  A    between atoms: _240  and  _242
REMARK  100  A    between atoms: _242  and  _243
REMARK  101  A    between atoms: _242  and  _245
REMARK  102  A    between atoms: _248  and  _250
REMARK  103  A    between atoms: _250  and  _251
REMARK  104  A    between atoms: _250  and  _253
REMARK  105  A    between atoms: _253  and  _254
REMARK  106  A    between atoms: _259  and  _261
REMARK  107  A    between atoms: _261  and  _262
REMARK  108  A    between atoms: _261  and  _264
REMARK  109  A    between atoms: _267  and  _269
REMARK  110  A    between atoms: _269  and  _270
REMARK  111  A    between atoms: _269  and  _272
REMARK  112  A    between atoms: _272  and  _273
REMARK  113  A    between atoms: _276  and  _278
REMARK  114  A    between atoms: _278  and  _279
REMARK  115  A    between atoms: _281  and  _283
REMARK  116  A    between atoms: _283  and  _284
REMARK  117  A    between atoms: _283  and  _286
REMARK  118  A    between atoms: _287  and  _288
REMARK  119  A    between atoms: _288  and  _289
REMARK  120  A    between atoms: _298  and  _300
REMARK  121  A    between atoms: _300  and  _301
REMARK  122  A    between atoms: _300  and  _303
REMARK  123  A    between atoms: _303  and  _304
REMARK  124  A    between atoms: _309  and  _311
REMARK  125  A    between atoms: _311  and  _312
REMARK  126  A    between atoms: _311  and  _314
REMARK  127  A    between atoms: _314  and  _315
REMARK  128  A    between atoms: _315  and  _316
REMARK  129  A    between atoms: _316  and  _317
REMARK  130  A    between atoms: _326  and  _328
REMARK  131  A    between atoms: _328  and  _329
REMARK  132  A    between atoms: _328  and  _331
REMARK  133  A    between atoms: _331  and  _332
REMARK  134  A    between atoms: _335  and  _337
REMARK  135  A    between atoms: _337  and  _338
REMARK  136  A    between atoms: _337  and  _340
REMARK  137  A    between atoms: _340  and  _341
REMARK  138  A    between atoms: _344  and  _346
REMARK  139  A    between atoms: _346  and  _347
REMARK  140  A    between atoms: _346  and  _349
REMARK  141  A    between atoms: _349  and  _350
REMARK  142  A    between atoms: _353  and  _355
REMARK  143  A    between atoms: _355  and  _356
REMARK  144  A    between atoms: _355  and  _358
REMARK  145  A    between atoms: _358  and  _359
REMARK  146  A    between atoms: _362  and  _364
REMARK  147  A    between atoms: _364  and  _365
REMARK  148  A    between atoms: _367  and  _369
REMARK  149  A    between atoms: _369  and  _370
REMARK  150  A    between atoms: _373  and  _375
REMARK  151  A    between atoms: _375  and  _376
REMARK  152  A    between atoms: _375  and  _378
REMARK  153  A    between atoms: _378  and  _379
REMARK  154  A    between atoms: _382  and  _384
REMARK  155  A    between atoms: _384  and  _385
REMARK  156  A    between atoms: _384  and  _387
REMARK  157  A    between atoms: _387  and  _388
REMARK  158  A    between atoms: _391  and  _393
REMARK  159  A    between atoms: _393  and  _394
REMARK  160  A    between atoms: _393  and  _396
REMARK  161  A    between atoms: _396  and  _397
REMARK  162  A    between atoms: _400  and  _402
REMARK  163  A    between atoms: _402  and  _403
REMARK  164  A    between atoms: _402  and  _405
REMARK  165  A    between atoms: _408  and  _410
REMARK  166  A    between atoms: _410  and  _411
REMARK  167  A    between atoms: _410  and  _413
REMARK  168  A    between atoms: _413  and  _414
REMARK  169  A    between atoms: _414  and  _415
REMARK  170  A    between atoms: _415  and  _416
REMARK  171  A    between atoms: _416  and  _417
REMARK  172  A    between atoms: _421  and  _423
REMARK  173  A    between atoms: _423  and  _424
REMARK  174  A    between atoms: _423  and  _426
REMARK  175  A    between atoms: _426  and  _427
REMARK  176  A    between atoms: _427  and  _428
REMARK  177  A    between atoms: _430  and  _432
REMARK  178  A    between atoms: _432  and  _433
REMARK  179  A    between atoms: _432  and  _435
REMARK  180  A    between atoms: _435  and  _436
REMARK  181  A    between atoms: _439  and  _441
REMARK  182  A    between atoms: _441  and  _442
REMARK  183  A    between atoms: _444  and  _446
REMARK  184  A    between atoms: _446  and  _447
REMARK  185  A    between atoms: _449  and  _451
REMARK  186  A    between atoms: _451  and  _452
REMARK  187  A    between atoms: _451  and  _454
REMARK  188  A    between atoms: _454  and  _455
REMARK  189  A    between atoms: _458  and  _460
REMARK  190  A    between atoms: _460  and  _461
REMARK  191  A    between atoms: _463  and  _465
REMARK  192  A    between atoms: _465  and  _466
REMARK  193  A    between atoms: _468  and  _470
REMARK  194  A    between atoms: _470  and  _471
REMARK  195  A    between atoms: _470  and  _473
REMARK  196  A    between atoms: _473  and  _474
REMARK  197  A    between atoms: _480  and  _482
REMARK  198  A    between atoms: _482  and  _483
REMARK  199  A    between atoms: _482  and  _485
REMARK  200  A    between atoms: _485  and  _486
REMARK  201  A    between atoms: _489  and  _491
REMARK  202  A    between atoms: _491  and  _492
REMARK  203  A    between atoms: _491  and  _494
REMARK  204  A    between atoms: _497  and  _499
REMARK  205  A    between atoms: _499  and  _500
REMARK  206  A    between atoms: _499  and  _502
REMARK  207  A    between atoms: _502  and  _503
REMARK  208  A    between atoms: _507  and  _508
REMARK  209  A    between atoms: _513  and  _515
REMARK  210  A    between atoms: _515  and  _516
REMARK  211  A    between atoms: _515  and  _518
REMARK  212  A    between atoms: _518  and  _519
REMARK  213  A    between atoms: _523  and  _524
REMARK  214  A    between atoms: _529  and  _531
REMARK  215  A    between atoms: _531  and  _532
REMARK  216  A    between atoms: _531  and  _534
REMARK  217  A    between atoms: _537  and  _539
REMARK  218  A    between atoms: _539  and  _540
REMARK  219  A    between atoms: _539  and  _542
REMARK  220  A    between atoms: _542  and  _543
REMARK  221  A    between atoms: _548  and  _550
REMARK  222  A    between atoms: _550  and  _551
REMARK  223  A    between atoms: _550  and  _553
REMARK  224  A    between atoms: _556  and  _558
REMARK  225  A    between atoms: _558  and  _559
REMARK  226  A    between atoms: _558  and  _561
REMARK  227  A    between atoms: _561  and  _562
REMARK  228  A    between atoms: _565  and  _567
REMARK  229  A    between atoms: _567  and  _568
REMARK  230  A    between atoms: _570  and  _572
REMARK  231  A    between atoms: _572  and  _573
REMARK  232  A    between atoms: _572  and  _575
REMARK  233  A    between atoms: _575  and  _576
REMARK  234  A    between atoms: _576  and  _577
REMARK  235  A    between atoms: _577  and  _578
REMARK  236  A    between atoms: _587  and  _589
REMARK  237  A    between atoms: _589  and  _590
REMARK  238  A    between atoms: _589  and  _592
REMARK  239  A    between atoms: _592  and  _593
REMARK                            x       y       z     vdW  Elec       q    Type
REMARK                         _______ _______ _______ _____ _____    ______ ____
ROOT
ATOM      1  O   HOH     1       8.860  16.289  27.149  0.00  0.00    +0.000 OA
ENDROOT
TORSDOF 0
REMARK  Name = ../refined-set-2016/2aoc/2aoc_pocket.pdb
REMARK  239 active torsions:
REMARK  status: ('A' for Active; 'I' for Inactive)
REMARK    1  A    between atoms: _1  and  _3
REMARK    2  A    between atoms: _3  and  _4
REMARK    3  A    between atoms: _3  and  _6
REMARK    4  A    between atoms: _6  and  _7
REMARK    5  A    between atoms: _7  and  _8
REMARK    6  A    between atoms: _8  and  _9
REMARK    7  A    between atoms: _18  and  _20
REMARK    8  A    between atoms: _20  and  _21
REMARK    9  A    between atoms: _20  and  _23
REMARK   10  A    between atoms: _23  and  _24
REMARK   11  A    between atoms: _27  and  _29
REMARK   12  A    between atoms: _29  and  _30
REMARK   13  A    between atoms: _29  and  _32
REMARK   14  A    between atoms: _33  and  _34
REMARK   15  A    between atoms: _37  and  _39
REMARK   16  A    between atoms: _39  and  _40
REMARK   17  A    between atoms: _39  and  _42
REMARK   18  A    between atoms: _42  and  _43
REMARK   19  A    between atoms: _46  and  _48
REMARK   20  A    between atoms: _48  and  _49
REMARK   21  A    between atoms: _48  and  _51
REMARK   22  A    between atoms: _51  and  _52
REMARK   23  A    between atoms: _55  and  _57
REMARK   24  A    between atoms: _57  and  _58
REMARK   25  A    between atoms: _57  and  _60
REMARK   26  A    between atoms: _60  and  _61
REMARK   27  A    between atoms: _64  and  _66
REMARK   28  A    between atoms: _66  and  _67
REMARK   29  A    between atoms: _66  and  _69
REMARK   30  A    between atoms: _69  and  _70
REMARK   31  A    between atoms: _73  and  _75
REMARK   32  A    between atoms: _75  and  _76
REMARK   33  A    between atoms: _78  and  _80
REMARK   34  A    between atoms: _80  and  _81
REMARK   35  A    between atoms: _84  and  _86
REMARK   36  A    between atoms: _86  and  _87
REMARK   37  A    between atoms: _86  and  _89
REMARK   38  A    between atoms: _89  and  _90
REMARK   39  A    between atoms: _93  and  _95
REMARK   40  A    between atoms: _95  and  _96
REMARK   41  A    between atoms: _95  and  _98
REMARK   42  A    between atoms: _98  and  _99
REMARK   43  A    between atoms: _102  and  _104
REMARK   44  A    between atoms: _104  and  _105
REMARK   45  A    between atoms: _104  and  _107
REMARK   46  A    between atoms: _107  and  _108
REMARK   47  A    between atoms: _111  and  _113
REMARK   48  A    between atoms: _113  and  _114
REMARK   49  A    between atoms: _113  and  _116
REMARK   50  A    between atoms: _119  and  _121
REMARK   51  A    between atoms: _121  and  _122
REMARK   52  A    between atoms: _121  and  _124
REMARK   53  A    between atoms: _124  and  _125
REMARK   54  A    between atoms: _125  and  _126
REMARK   55  A    between atoms: _126  and  _127
REMARK   56  A    between atoms: _127  and  _128
REMARK   57  A    between atoms: _132  and  _134
REMARK   58  A    between atoms: _134  and  _135
REMARK   59  A    between atoms: _134  and  _137
REMARK   60  A    between atoms: _137  and  _138
REMARK   61  A    between atoms: _138  and  _139
REMARK   62  A    between atoms: _141  and  _143
REMARK   63  A    between atoms: _143  and  _144
REMARK   64  A    between atoms: _143  and  _146
REMARK   65  A    between atoms: _146  and  _147
REMARK   66  A    between atoms: _150  and  _152
REMARK   67  A    between atoms: _152  and  _153
REMARK   68  A    between atoms: _155  and  _157
REMARK   69  A    between atoms: _157  and  _158
REMARK   70  A    between atoms: _160  and  _162
REMARK   71  A    between atoms: _162  and  _163
REMARK   72  A    between atoms: _162  and  _165
REMARK   73  A    between atoms: _165  and  _166
REMARK   74  A    between atoms: _169  and  _171
REMARK   75  A    between atoms: _171  and  _172
REMARK   76  A    between atoms: _174  and  _176
REMARK   77  A    between atoms: _176  and  _177
REMARK   78  A    between atoms: _179  and  _181
REMARK   79  A    between atoms: _181  and  _182
REMARK   80  A    between atoms: _181  and  _184
REMARK   81  A    between atoms: _184  and  _185
REMARK   82  A    between atoms: _191  and  _193
REMARK   83  A    between atoms: _193  and  _194
REMARK   84  A    between atoms: _193  and  _196
REMARK   85  A    between atoms: _196  and  _197
REMARK   86  A    between atoms: _200  and  _202
REMARK   87  A    between atoms: _202  and  _203
REMARK   88  A    between atoms: _202  and  _205
REMARK   89  A    between atoms: _208  and  _210
REMARK   90  A    between atoms: _210  and  _211
REMARK   91  A    between atoms: _210  and  _213
REMARK   92  A    between atoms: _213  and  _214
REMARK   93  A    between atoms: _218  and  _219
REMARK   94  A    between atoms: _224  and  _226
REMARK   95  A    between atoms: _226  and  _227
REMARK   96  A    between atoms: _226  and  _229
REMARK   97  A    between atoms: _229  and  _230
REMARK   98  A    between atoms: _234  and  _235
REMARK   99  A    between atoms: _240  and  _242
REMARK  100  A    between atoms: _242  and  _243
REMARK  101  A    between atoms: _242  and  _245
REMARK  102  A    between atoms: _248  and  _250
REMARK  103  A    between atoms: _250  and  _251
REMARK  104  A    between atoms: _250  and  _253
REMARK  105  A    between atoms: _253  and  _254
REMARK  106  A    between atoms: _259  and  _261
REMARK  107  A    between atoms: _261  and  _262
REMARK  108  A    between atoms: _261  and  _264
REMARK  109  A    between atoms: _267  and  _269
REMARK  110  A    between atoms: _269  and  _270
REMARK  111  A    between atoms: _269  and  _272
REMARK  112  A    between atoms: _272  and  _273
REMARK  113  A    between atoms: _276  and  _278
REMARK  114  A    between atoms: _278  and  _279
REMARK  115  A    between atoms: _281  and  _283
REMARK  116  A    between atoms: _283  and  _284
REMARK  117  A    between atoms: _283  and  _286
REMARK  118  A    between atoms: _287  and  _288
REMARK  119  A    between atoms: _288  and  _289
REMARK  120  A    between atoms: _298  and  _300
REMARK  121  A    between atoms: _300  and  _301
REMARK  122  A    between atoms: _300  and  _303
REMARK  123  A    between atoms: _303  and  _304
REMARK  124  A    between atoms: _309  and  _311
REMARK  125  A    between atoms: _311  and  _312
REMARK  126  A    between atoms: _311  and  _314
REMARK  127  A    between atoms: _314  and  _315
REMARK  128  A    between atoms: _315  and  _316
REMARK  129  A    between atoms: _316  and  _317
REMARK  130  A    between atoms: _326  and  _328
REMARK  131  A    between atoms: _328  and  _329
REMARK  132  A    between atoms: _328  and  _331
REMARK  133  A    between atoms: _331  and  _332
REMARK  134  A    between atoms: _335  and  _337
REMARK  135  A    between atoms: _337  and  _338
REMARK  136  A    between atoms: _337  and  _340
REMARK  137  A    between atoms: _340  and  _341
REMARK  138  A    between atoms: _344  and  _346
REMARK  139  A    between atoms: _346  and  _347
REMARK  140  A    between atoms: _346  and  _349
REMARK  141  A    between atoms: _349  and  _350
REMARK  142  A    between atoms: _353  and  _355
REMARK  143  A    between atoms: _355  and  _356
REMARK  144  A    between atoms: _355  and  _358
REMARK  145  A    between atoms: _358  and  _359
REMARK  146  A    between atoms: _362  and  _364
REMARK  147  A    between atoms: _364  and  _365
REMARK  148  A    between atoms: _367  and  _369
REMARK  149  A    between atoms: _369  and  _370
REMARK  150  A    between atoms: _373  and  _375
REMARK  151  A    between atoms: _375  and  _376
REMARK  152  A    between atoms: _375  and  _378
REMARK  153  A    between atoms: _378  and  _379
REMARK  154  A    between atoms: _382  and  _384
REMARK  155  A    between atoms: _384  and  _385
REMARK  156  A    between atoms: _384  and  _387
REMARK  157  A    between atoms: _387  and  _388
REMARK  158  A    between atoms: _391  and  _393
REMARK  159  A    between atoms: _393  and  _394
REMARK  160  A    between atoms: _393  and  _396
REMARK  161  A    between atoms: _396  and  _397
REMARK  162  A    between atoms: _400  and  _402
REMARK  163  A    between atoms: _402  and  _403
REMARK  164  A    between atoms: _402  and  _405
REMARK  165  A    between atoms: _408  and  _410
REMARK  166  A    between atoms: _410  and  _411
REMARK  167  A    between atoms: _410  and  _413
REMARK  168  A    between atoms: _413  and  _414
REMARK  169  A    between atoms: _414  and  _415
REMARK  170  A    between atoms: _415  and  _416
REMARK  171  A    between atoms: _416  and  _417
REMARK  172  A    between atoms: _421  and  _423
REMARK  173  A    between atoms: _423  and  _424
REMARK  174  A    between atoms: _423  and  _426
REMARK  175  A    between atoms: _426  and  _427
REMARK  176  A    between atoms: _427  and  _428
REMARK  177  A    between atoms: _430  and  _432
REMARK  178  A    between atoms: _432  and  _433
REMARK  179  A    between atoms: _432  and  _435
REMARK  180  A    between atoms: _435  and  _436
REMARK  181  A    between atoms: _439  and  _441
REMARK  182  A    between atoms: _441  and  _442
REMARK  183  A    between atoms: _444  and  _446
REMARK  184  A    between atoms: _446  and  _447
REMARK  185  A    between atoms: _449  and  _451
REMARK  186  A    between atoms: _451  and  _452
REMARK  187  A    between atoms: _451  and  _454
REMARK  188  A    between atoms: _454  and  _455
REMARK  189  A    between atoms: _458  and  _460
REMARK  190  A    between atoms: _460  and  _461
REMARK  191  A    between atoms: _463  and  _465
REMARK  192  A    between atoms: _465  and  _466
REMARK  193  A    between atoms: _468  and  _470
REMARK  194  A    between atoms: _470  and  _471
REMARK  195  A    between atoms: _470  and  _473
REMARK  196  A    between atoms: _473  and  _474
REMARK  197  A    between atoms: _480  and  _482
REMARK  198  A    between atoms: _482  and  _483
REMARK  199  A    between atoms: _482  and  _485
REMARK  200  A    between atoms: _485  and  _486
REMARK  201  A    between atoms: _489  and  _491
REMARK  202  A    between atoms: _491  and  _492
REMARK  203  A    between atoms: _491  and  _494
REMARK  204  A    between atoms: _497  and  _499
REMARK  205  A    between atoms: _499  and  _500
REMARK  206  A    between atoms: _499  and  _502
REMARK  207  A    between atoms: _502  and  _503
REMARK  208  A    between atoms: _507  and  _508
REMARK  209  A    between atoms: _513  and  _515
REMARK  210  A    between atoms: _515  and  _516
REMARK  211  A    between atoms: _515  and  _518
REMARK  212  A    between atoms: _518  and  _519
REMARK  213  A    between atoms: _523  and  _524
REMARK  214  A    between atoms: _529  and  _531
REMARK  215  A    between atoms: _531  and  _532
REMARK  216  A    between atoms: _531  and  _534
REMARK  217  A    between atoms: _537  and  _539
REMARK  218  A    between atoms: _539  and  _540
REMARK  219  A    between atoms: _539  and  _542
REMARK  220  A    between atoms: _542  and  _543
REMARK  221  A    between atoms: _548  and  _550
REMARK  222  A    between atoms: _550  and  _551
REMARK  223  A    between atoms: _550  and  _553
REMARK  224  A    between atoms: _556  and  _558
REMARK  225  A    between atoms: _558  and  _559
REMARK  226  A    between atoms: _558  and  _561
REMARK  227  A    between atoms: _561  and  _562
REMARK  228  A    between atoms: _565  and  _567
REMARK  229  A    between atoms: _567  and  _568
REMARK  230  A    between atoms: _570  and  _572
REMARK  231  A    between atoms: _572  and  _573
REMARK  232  A    between atoms: _572  and  _575
REMARK  233  A    between atoms: _575  and  _576
REMARK  234  A    between atoms: _576  and  _577
REMARK  235  A    between atoms: _577  and  _578
REMARK  236  A    between atoms: _587  and  _589
REMARK  237  A    between atoms: _589  and  _590
REMARK  238  A    between atoms: _589  and  _592
REMARK  239  A    between atoms: _592  and  _593
REMARK                            x       y       z     vdW  Elec       q    Type
REMARK                         _______ _______ _______ _____ _____    ______ ____
ROOT
ATOM      1  O   HOH     1      17.771  20.783  16.741  0.00  0.00    +0.000 OA
ENDROOT
TORSDOF 0
REMARK  Name = ../refined-set-2016/2aoc/2aoc_pocket.pdb
REMARK  239 active torsions:
REMARK  status: ('A' for Active; 'I' for Inactive)
REMARK    1  A    between atoms: _1  and  _3
REMARK    2  A    between atoms: _3  and  _4
REMARK    3  A    between atoms: _3  and  _6
REMARK    4  A    between atoms: _6  and  _7
REMARK    5  A    between atoms: _7  and  _8
REMARK    6  A    between atoms: _8  and  _9
REMARK    7  A    between atoms: _18  and  _20
REMARK    8  A    between atoms: _20  and  _21
REMARK    9  A    between atoms: _20  and  _23
REMARK   10  A    between atoms: _23  and  _24
REMARK   11  A    between atoms: _27  and  _29
REMARK   12  A    between atoms: _29  and  _30
REMARK   13  A    between atoms: _29  and  _32
REMARK   14  A    between atoms: _33  and  _34
REMARK   15  A    between atoms: _37  and  _39
REMARK   16  A    between atoms: _39  and  _40
REMARK   17  A    between atoms: _39  and  _42
REMARK   18  A    between atoms: _42  and  _43
REMARK   19  A    between atoms: _46  and  _48
REMARK   20  A    between atoms: _48  and  _49
REMARK   21  A    between atoms: _48  and  _51
REMARK   22  A    between atoms: _51  and  _52
REMARK   23  A    between atoms: _55  and  _57
REMARK   24  A    between atoms: _57  and  _58
REMARK   25  A    between atoms: _57  and  _60
REMARK   26  A    between atoms: _60  and  _61
REMARK   27  A    between atoms: _64  and  _66
REMARK   28  A    between atoms: _66  and  _67
REMARK   29  A    between atoms: _66  and  _69
REMARK   30  A    between atoms: _69  and  _70
REMARK   31  A    between atoms: _73  and  _75
REMARK   32  A    between atoms: _75  and  _76
REMARK   33  A    between atoms: _78  and  _80
REMARK   34  A    between atoms: _80  and  _81
REMARK   35  A    between atoms: _84  and  _86
REMARK   36  A    between atoms: _86  and  _87
REMARK   37  A    between atoms: _86  and  _89
REMARK   38  A    between atoms: _89  and  _90
REMARK   39  A    between atoms: _93  and  _95
REMARK   40  A    between atoms: _95  and  _96
REMARK   41  A    between atoms: _95  and  _98
REMARK   42  A    between atoms: _98  and  _99
REMARK   43  A    between atoms: _102  and  _104
REMARK   44  A    between atoms: _104  and  _105
REMARK   45  A    between atoms: _104  and  _107
REMARK   46  A    between atoms: _107  and  _108
REMARK   47  A    between atoms: _111  and  _113
REMARK   48  A    between atoms: _113  and  _114
REMARK   49  A    between atoms: _113  and  _116
REMARK   50  A    between atoms: _119  and  _121
REMARK   51  A    between atoms: _121  and  _122
REMARK   52  A    between atoms: _121  and  _124
REMARK   53  A    between atoms: _124  and  _125
REMARK   54  A    between atoms: _125  and  _126
REMARK   55  A    between atoms: _126  and  _127
REMARK   56  A    between atoms: _127  and  _128
REMARK   57  A    between atoms: _132  and  _134
REMARK   58  A    between atoms: _134  and  _135
REMARK   59  A    between atoms: _134  and  _137
REMARK   60  A    between atoms: _137  and  _138
REMARK   61  A    between atoms: _138  and  _139
REMARK   62  A    between atoms: _141  and  _143
REMARK   63  A    between atoms: _143  and  _144
REMARK   64  A    between atoms: _143  and  _146
REMARK   65  A    between atoms: _146  and  _147
REMARK   66  A    between atoms: _150  and  _152
REMARK   67  A    between atoms: _152  and  _153
REMARK   68  A    between atoms: _155  and  _157
REMARK   69  A    between atoms: _157  and  _158
REMARK   70  A    between atoms: _160  and  _162
REMARK   71  A    between atoms: _162  and  _163
REMARK   72  A    between atoms: _162  and  _165
REMARK   73  A    between atoms: _165  and  _166
REMARK   74  A    between atoms: _169  and  _171
REMARK   75  A    between atoms: _171  and  _172
REMARK   76  A    between atoms: _174  and  _176
REMARK   77  A    between atoms: _176  and  _177
REMARK   78  A    between atoms: _179  and  _181
REMARK   79  A    between atoms: _181  and  _182
REMARK   80  A    between atoms: _181  and  _184
REMARK   81  A    between atoms: _184  and  _185
REMARK   82  A    between atoms: _191  and  _193
REMARK   83  A    between atoms: _193  and  _194
REMARK   84  A    between atoms: _193  and  _196
REMARK   85  A    between atoms: _196  and  _197
REMARK   86  A    between atoms: _200  and  _202
REMARK   87  A    between atoms: _202  and  _203
REMARK   88  A    between atoms: _202  and  _205
REMARK   89  A    between atoms: _208  and  _210
REMARK   90  A    between atoms: _210  and  _211
REMARK   91  A    between atoms: _210  and  _213
REMARK   92  A    between atoms: _213  and  _214
REMARK   93  A    between atoms: _218  and  _219
REMARK   94  A    between atoms: _224  and  _226
REMARK   95  A    between atoms: _226  and  _227
REMARK   96  A    between atoms: _226  and  _229
REMARK   97  A    between atoms: _229  and  _230
REMARK   98  A    between atoms: _234  and  _235
REMARK   99  A    between atoms: _240  and  _242
REMARK  100  A    between atoms: _242  and  _243
REMARK  101  A    between atoms: _242  and  _245
REMARK  102  A    between atoms: _248  and  _250
REMARK  103  A    between atoms: _250  and  _251
REMARK  104  A    between atoms: _250  and  _253
REMARK  105  A    between atoms: _253  and  _254
REMARK  106  A    between atoms: _259  and  _261
REMARK  107  A    between atoms: _261  and  _262
REMARK  108  A    between atoms: _261  and  _264
REMARK  109  A    between atoms: _267  and  _269
REMARK  110  A    between atoms: _269  and  _270
REMARK  111  A    between atoms: _269  and  _272
REMARK  112  A    between atoms: _272  and  _273
REMARK  113  A    between atoms: _276  and  _278
REMARK  114  A    between atoms: _278  and  _279
REMARK  115  A    between atoms: _281  and  _283
REMARK  116  A    between atoms: _283  and  _284
REMARK  117  A    between atoms: _283  and  _286
REMARK  118  A    between atoms: _287  and  _288
REMARK  119  A    between atoms: _288  and  _289
REMARK  120  A    between atoms: _298  and  _300
REMARK  121  A    between atoms: _300  and  _301
REMARK  122  A    between atoms: _300  and  _303
REMARK  123  A    between atoms: _303  and  _304
REMARK  124  A    between atoms: _309  and  _311
REMARK  125  A    between atoms: _311  and  _312
REMARK  126  A    between atoms: _311  and  _314
REMARK  127  A    between atoms: _314  and  _315
REMARK  128  A    between atoms: _315  and  _316
REMARK  129  A    between atoms: _316  and  _317
REMARK  130  A    between atoms: _326  and  _328
REMARK  131  A    between atoms: _328  and  _329
REMARK  132  A    between atoms: _328  and  _331
REMARK  133  A    between atoms: _331  and  _332
REMARK  134  A    between atoms: _335  and  _337
REMARK  135  A    between atoms: _337  and  _338
REMARK  136  A    between atoms: _337  and  _340
REMARK  137  A    between atoms: _340  and  _341
REMARK  138  A    between atoms: _344  and  _346
REMARK  139  A    between atoms: _346  and  _347
REMARK  140  A    between atoms: _346  and  _349
REMARK  141  A    between atoms: _349  and  _350
REMARK  142  A    between atoms: _353  and  _355
REMARK  143  A    between atoms: _355  and  _356
REMARK  144  A    between atoms: _355  and  _358
REMARK  145  A    between atoms: _358  and  _359
REMARK  146  A    between atoms: _362  and  _364
REMARK  147  A    between atoms: _364  and  _365
REMARK  148  A    between atoms: _367  and  _369
REMARK  149  A    between atoms: _369  and  _370
REMARK  150  A    between atoms: _373  and  _375
REMARK  151  A    between atoms: _375  and  _376
REMARK  152  A    between atoms: _375  and  _378
REMARK  153  A    between atoms: _378  and  _379
REMARK  154  A    between atoms: _382  and  _384
REMARK  155  A    between atoms: _384  and  _385
REMARK  156  A    between atoms: _384  and  _387
REMARK  157  A    between atoms: _387  and  _388
REMARK  158  A    between atoms: _391  and  _393
REMARK  159  A    between atoms: _393  and  _394
REMARK  160  A    between atoms: _393  and  _396
REMARK  161  A    between atoms: _396  and  _397
REMARK  162  A    between atoms: _400  and  _402
REMARK  163  A    between atoms: _402  and  _403
REMARK  164  A    between atoms: _402  and  _405
REMARK  165  A    between atoms: _408  and  _410
REMARK  166  A    between atoms: _410  and  _411
REMARK  167  A    between atoms: _410  and  _413
REMARK  168  A    between atoms: _413  and  _414
REMARK  169  A    between atoms: _414  and  _415
REMARK  170  A    between atoms: _415  and  _416
REMARK  171  A    between atoms: _416  and  _417
REMARK  172  A    between atoms: _421  and  _423
REMARK  173  A    between atoms: _423  and  _424
REMARK  174  A    between atoms: _423  and  _426
REMARK  175  A    between atoms: _426  and  _427
REMARK  176  A    between atoms: _427  and  _428
REMARK  177  A    between atoms: _430  and  _432
REMARK  178  A    between atoms: _432  and  _433
REMARK  179  A    between atoms: _432  and  _435
REMARK  180  A    between atoms: _435  and  _436
REMARK  181  A    between atoms: _439  and  _441
REMARK  182  A    between atoms: _441  and  _442
REMARK  183  A    between atoms: _444  and  _446
REMARK  184  A    between atoms: _446  and  _447
REMARK  185  A    between atoms: _449  and  _451
REMARK  186  A    between atoms: _451  and  _452
REMARK  187  A    between atoms: _451  and  _454
REMARK  188  A    between atoms: _454  and  _455
REMARK  189  A    between atoms: _458  and  _460
REMARK  190  A    between atoms: _460  and  _461
REMARK  191  A    between atoms: _463  and  _465
REMARK  192  A    between atoms: _465  and  _466
REMARK  193  A    between atoms: _468  and  _470
REMARK  194  A    between atoms: _470  and  _471
REMARK  195  A    between atoms: _470  and  _473
REMARK  196  A    between atoms: _473  and  _474
REMARK  197  A    between atoms: _480  and  _482
REMARK  198  A    between atoms: _482  and  _483
REMARK  199  A    between atoms: _482  and  _485
REMARK  200  A    between atoms: _485  and  _486
REMARK  201  A    between atoms: _489  and  _491
REMARK  202  A    between atoms: _491  and  _492
REMARK  203  A    between atoms: _491  and  _494
REMARK  204  A    between atoms: _497  and  _499
REMARK  205  A    between atoms: _499  and  _500
REMARK  206  A    between atoms: _499  and  _502
REMARK  207  A    between atoms: _502  and  _503
REMARK  208  A    between atoms: _507  and  _508
REMARK  209  A    between atoms: _513  and  _515
REMARK  210  A    between atoms: _515  and  _516
REMARK  211  A    between atoms: _515  and  _518
REMARK  212  A    between atoms: _518  and  _519
REMARK  213  A    between atoms: _523  and  _524
REMARK  214  A    between atoms: _529  and  _531
REMARK  215  A    between atoms: _531  and  _532
REMARK  216  A    between atoms: _531  and  _534
REMARK  217  A    between atoms: _537  and  _539
REMARK  218  A    between atoms: _539  and  _540
REMARK  219  A    between atoms: _539  and  _542
REMARK  220  A    between atoms: _542  and  _543
REMARK  221  A    between atoms: _548  and  _550
REMARK  222  A    between atoms: _550  and  _551
REMARK  223  A    between atoms: _550  and  _553
REMARK  224  A    between atoms: _556  and  _558
REMARK  225  A    between atoms: _558  and  _559
REMARK  226  A    between atoms: _558  and  _561
REMARK  227  A    between atoms: _561  and  _562
REMARK  228  A    between atoms: _565  and  _567
REMARK  229  A    between atoms: _567  and  _568
REMARK  230  A    between atoms: _570  and  _572
REMARK  231  A    between atoms: _572  and  _573
REMARK  232  A    between atoms: _572  and  _575
REMARK  233  A    between atoms: _575  and  _576
REMARK  234  A    between atoms: _576  and  _577
REMARK  235  A    between atoms: _577  and  _578
REMARK  236  A    between atoms: _587  and  _589
REMARK  237  A    between atoms: _589  and  _590
REMARK  238  A    between atoms: _589  and  _592
REMARK  239  A    between atoms: _592  and  _593
REMARK                            x       y       z     vdW  Elec       q    Type
REMARK                         _______ _______ _______ _____ _____    ______ ____
ROOT
ATOM      1  O   HOH     1      21.854  26.792  22.524  0.00  0.00    +0.000 OA
ENDROOT
TORSDOF 0
REMARK  Name = ../refined-set-2016/2aoc/2aoc_pocket.pdb
REMARK  239 active torsions:
REMARK  status: ('A' for Active; 'I' for Inactive)
REMARK    1  A    between atoms: _1  and  _3
REMARK    2  A    between atoms: _3  and  _4
REMARK    3  A    between atoms: _3  and  _6
REMARK    4  A    between atoms: _6  and  _7
REMARK    5  A    between atoms: _7  and  _8
REMARK    6  A    between atoms: _8  and  _9
REMARK    7  A    between atoms: _18  and  _20
REMARK    8  A    between atoms: _20  and  _21
REMARK    9  A    between atoms: _20  and  _23
REMARK   10  A    between atoms: _23  and  _24
REMARK   11  A    between atoms: _27  and  _29
REMARK   12  A    between atoms: _29  and  _30
REMARK   13  A    between atoms: _29  and  _32
REMARK   14  A    between atoms: _33  and  _34
REMARK   15  A    between atoms: _37  and  _39
REMARK   16  A    between atoms: _39  and  _40
REMARK   17  A    between atoms: _39  and  _42
REMARK   18  A    between atoms: _42  and  _43
REMARK   19  A    between atoms: _46  and  _48
REMARK   20  A    between atoms: _48  and  _49
REMARK   21  A    between atoms: _48  and  _51
REMARK   22  A    between atoms: _51  and  _52
REMARK   23  A    between atoms: _55  and  _57
REMARK   24  A    between atoms: _57  and  _58
REMARK   25  A    between atoms: _57  and  _60
REMARK   26  A    between atoms: _60  and  _61
REMARK   27  A    between atoms: _64  and  _66
REMARK   28  A    between atoms: _66  and  _67
REMARK   29  A    between atoms: _66  and  _69
REMARK   30  A    between atoms: _69  and  _70
REMARK   31  A    between atoms: _73  and  _75
REMARK   32  A    between atoms: _75  and  _76
REMARK   33  A    between atoms: _78  and  _80
REMARK   34  A    between atoms: _80  and  _81
REMARK   35  A    between atoms: _84  and  _86
REMARK   36  A    between atoms: _86  and  _87
REMARK   37  A    between atoms: _86  and  _89
REMARK   38  A    between atoms: _89  and  _90
REMARK   39  A    between atoms: _93  and  _95
REMARK   40  A    between atoms: _95  and  _96
REMARK   41  A    between atoms: _95  and  _98
REMARK   42  A    between atoms: _98  and  _99
REMARK   43  A    between atoms: _102  and  _104
REMARK   44  A    between atoms: _104  and  _105
REMARK   45  A    between atoms: _104  and  _107
REMARK   46  A    between atoms: _107  and  _108
REMARK   47  A    between atoms: _111  and  _113
REMARK   48  A    between atoms: _113  and  _114
REMARK   49  A    between atoms: _113  and  _116
REMARK   50  A    between atoms: _119  and  _121
REMARK   51  A    between atoms: _121  and  _122
REMARK   52  A    between atoms: _121  and  _124
REMARK   53  A    between atoms: _124  and  _125
REMARK   54  A    between atoms: _125  and  _126
REMARK   55  A    between atoms: _126  and  _127
REMARK   56  A    between atoms: _127  and  _128
REMARK   57  A    between atoms: _132  and  _134
REMARK   58  A    between atoms: _134  and  _135
REMARK   59  A    between atoms: _134  and  _137
REMARK   60  A    between atoms: _137  and  _138
REMARK   61  A    between atoms: _138  and  _139
REMARK   62  A    between atoms: _141  and  _143
REMARK   63  A    between atoms: _143  and  _144
REMARK   64  A    between atoms: _143  and  _146
REMARK   65  A    between atoms: _146  and  _147
REMARK   66  A    between atoms: _150  and  _152
REMARK   67  A    between atoms: _152  and  _153
REMARK   68  A    between atoms: _155  and  _157
REMARK   69  A    between atoms: _157  and  _158
REMARK   70  A    between atoms: _160  and  _162
REMARK   71  A    between atoms: _162  and  _163
REMARK   72  A    between atoms: _162  and  _165
REMARK   73  A    between atoms: _165  and  _166
REMARK   74  A    between atoms: _169  and  _171
REMARK   75  A    between atoms: _171  and  _172
REMARK   76  A    between atoms: _174  and  _176
REMARK   77  A    between atoms: _176  and  _177
REMARK   78  A    between atoms: _179  and  _181
REMARK   79  A    between atoms: _181  and  _182
REMARK   80  A    between atoms: _181  and  _184
REMARK   81  A    between atoms: _184  and  _185
REMARK   82  A    between atoms: _191  and  _193
REMARK   83  A    between atoms: _193  and  _194
REMARK   84  A    between atoms: _193  and  _196
REMARK   85  A    between atoms: _196  and  _197
REMARK   86  A    between atoms: _200  and  _202
REMARK   87  A    between atoms: _202  and  _203
REMARK   88  A    between atoms: _202  and  _205
REMARK   89  A    between atoms: _208  and  _210
REMARK   90  A    between atoms: _210  and  _211
REMARK   91  A    between atoms: _210  and  _213
REMARK   92  A    between atoms: _213  and  _214
REMARK   93  A    between atoms: _218  and  _219
REMARK   94  A    between atoms: _224  and  _226
REMARK   95  A    between atoms: _226  and  _227
REMARK   96  A    between atoms: _226  and  _229
REMARK   97  A    between atoms: _229  and  _230
REMARK   98  A    between atoms: _234  and  _235
REMARK   99  A    between atoms: _240  and  _242
REMARK  100  A    between atoms: _242  and  _243
REMARK  101  A    between atoms: _242  and  _245
REMARK  102  A    between atoms: _248  and  _250
REMARK  103  A    between atoms: _250  and  _251
REMARK  104  A    between atoms: _250  and  _253
REMARK  105  A    between atoms: _253  and  _254
REMARK  106  A    between atoms: _259  and  _261
REMARK  107  A    between atoms: _261  and  _262
REMARK  108  A    between atoms: _261  and  _264
REMARK  109  A    between atoms: _267  and  _269
REMARK  110  A    between atoms: _269  and  _270
REMARK  111  A    between atoms: _269  and  _272
REMARK  112  A    between atoms: _272  and  _273
REMARK  113  A    between atoms: _276  and  _278
REMARK  114  A    between atoms: _278  and  _279
REMARK  115  A    between atoms: _281  and  _283
REMARK  116  A    between atoms: _283  and  _284
REMARK  117  A    between atoms: _283  and  _286
REMARK  118  A    between atoms: _287  and  _288
REMARK  119  A    between atoms: _288  and  _289
REMARK  120  A    between atoms: _298  and  _300
REMARK  121  A    between atoms: _300  and  _301
REMARK  122  A    between atoms: _300  and  _303
REMARK  123  A    between atoms: _303  and  _304
REMARK  124  A    between atoms: _309  and  _311
REMARK  125  A    between atoms: _311  and  _312
REMARK  126  A    between atoms: _311  and  _314
REMARK  127  A    between atoms: _314  and  _315
REMARK  128  A    between atoms: _315  and  _316
REMARK  129  A    between atoms: _316  and  _317
REMARK  130  A    between atoms: _326  and  _328
REMARK  131  A    between atoms: _328  and  _329
REMARK  132  A    between atoms: _328  and  _331
REMARK  133  A    between atoms: _331  and  _332
REMARK  134  A    between atoms: _335  and  _337
REMARK  135  A    between atoms: _337  and  _338
REMARK  136  A    between atoms: _337  and  _340
REMARK  137  A    between atoms: _340  and  _341
REMARK  138  A    between atoms: _344  and  _346
REMARK  139  A    between atoms: _346  and  _347
REMARK  140  A    between atoms: _346  and  _349
REMARK  141  A    between atoms: _349  and  _350
REMARK  142  A    between atoms: _353  and  _355
REMARK  143  A    between atoms: _355  and  _356
REMARK  144  A    between atoms: _355  and  _358
REMARK  145  A    between atoms: _358  and  _359
REMARK  146  A    between atoms: _362  and  _364
REMARK  147  A    between atoms: _364  and  _365
REMARK  148  A    between atoms: _367  and  _369
REMARK  149  A    between atoms: _369  and  _370
REMARK  150  A    between atoms: _373  and  _375
REMARK  151  A    between atoms: _375  and  _376
REMARK  152  A    between atoms: _375  and  _378
REMARK  153  A    between atoms: _378  and  _379
REMARK  154  A    between atoms: _382  and  _384
REMARK  155  A    between atoms: _384  and  _385
REMARK  156  A    between atoms: _384  and  _387
REMARK  157  A    between atoms: _387  and  _388
REMARK  158  A    between atoms: _391  and  _393
REMARK  159  A    between atoms: _393  and  _394
REMARK  160  A    between atoms: _393  and  _396
REMARK  161  A    between atoms: _396  and  _397
REMARK  162  A    between atoms: _400  and  _402
REMARK  163  A    between atoms: _402  and  _403
REMARK  164  A    between atoms: _402  and  _405
REMARK  165  A    between atoms: _408  and  _410
REMARK  166  A    between atoms: _410  and  _411
REMARK  167  A    between atoms: _410  and  _413
REMARK  168  A    between atoms: _413  and  _414
REMARK  169  A    between atoms: _414  and  _415
REMARK  170  A    between atoms: _415  and  _416
REMARK  171  A    between atoms: _416  and  _417
REMARK  172  A    between atoms: _421  and  _423
REMARK  173  A    between atoms: _423  and  _424
REMARK  174  A    between atoms: _423  and  _426
REMARK  175  A    between atoms: _426  and  _427
REMARK  176  A    between atoms: _427  and  _428
REMARK  177  A    between atoms: _430  and  _432
REMARK  178  A    between atoms: _432  and  _433
REMARK  179  A    between atoms: _432  and  _435
REMARK  180  A    between atoms: _435  and  _436
REMARK  181  A    between atoms: _439  and  _441
REMARK  182  A    between atoms: _441  and  _442
REMARK  183  A    between atoms: _444  and  _446
REMARK  184  A    between atoms: _446  and  _447
REMARK  185  A    between atoms: _449  and  _451
REMARK  186  A    between atoms: _451  and  _452
REMARK  187  A    between atoms: _451  and  _454
REMARK  188  A    between atoms: _454  and  _455
REMARK  189  A    between atoms: _458  and  _460
REMARK  190  A    between atoms: _460  and  _461
REMARK  191  A    between atoms: _463  and  _465
REMARK  192  A    between atoms: _465  and  _466
REMARK  193  A    between atoms: _468  and  _470
REMARK  194  A    between atoms: _470  and  _471
REMARK  195  A    between atoms: _470  and  _473
REMARK  196  A    between atoms: _473  and  _474
REMARK  197  A    between atoms: _480  and  _482
REMARK  198  A    between atoms: _482  and  _483
REMARK  199  A    between atoms: _482  and  _485
REMARK  200  A    between atoms: _485  and  _486
REMARK  201  A    between atoms: _489  and  _491
REMARK  202  A    between atoms: _491  and  _492
REMARK  203  A    between atoms: _491  and  _494
REMARK  204  A    between atoms: _497  and  _499
REMARK  205  A    between atoms: _499  and  _500
REMARK  206  A    between atoms: _499  and  _502
REMARK  207  A    between atoms: _502  and  _503
REMARK  208  A    between atoms: _507  and  _508
REMARK  209  A    between atoms: _513  and  _515
REMARK  210  A    between atoms: _515  and  _516
REMARK  211  A    between atoms: _515  and  _518
REMARK  212  A    between atoms: _518  and  _519
REMARK  213  A    between atoms: _523  and  _524
REMARK  214  A    between atoms: _529  and  _531
REMARK  215  A    between atoms: _531  and  _532
REMARK  216  A    between atoms: _531  and  _534
REMARK  217  A    between atoms: _537  and  _539
REMARK  218  A    between atoms: _539  and  _540
REMARK  219  A    between atoms: _539  and  _542
REMARK  220  A    between atoms: _542  and  _543
REMARK  221  A    between atoms: _548  and  _550
REMARK  222  A    between atoms: _550  and  _551
REMARK  223  A    between atoms: _550  and  _553
REMARK  224  A    between atoms: _556  and  _558
REMARK  225  A    between atoms: _558  and  _559
REMARK  226  A    between atoms: _558  and  _561
REMARK  227  A    between atoms: _561  and  _562
REMARK  228  A    between atoms: _565  and  _567
REMARK  229  A    between atoms: _567  and  _568
REMARK  230  A    between atoms: _570  and  _572
REMARK  231  A    between atoms: _572  and  _573
REMARK  232  A    between atoms: _572  and  _575
REMARK  233  A    between atoms: _575  and  _576
REMARK  234  A    between atoms: _576  and  _577
REMARK  235  A    between atoms: _577  and  _578
REMARK  236  A    between atoms: _587  and  _589
REMARK  237  A    between atoms: _589  and  _590
REMARK  238  A    between atoms: _589  and  _592
REMARK  239  A    between atoms: _592  and  _593
REMARK                            x       y       z     vdW  Elec       q    Type
REMARK                         _______ _______ _______ _____ _____    ______ ____
ROOT
ATOM      1  O   HOH     1      28.246  24.518  17.906  0.00  0.00    +0.000 OA
ENDROOT
TORSDOF 0
REMARK  Name = ../refined-set-2016/2aoc/2aoc_pocket.pdb
REMARK  239 active torsions:
REMARK  status: ('A' for Active; 'I' for Inactive)
REMARK    1  A    between atoms: _1  and  _3
REMARK    2  A    between atoms: _3  and  _4
REMARK    3  A    between atoms: _3  and  _6
REMARK    4  A    between atoms: _6  and  _7
REMARK    5  A    between atoms: _7  and  _8
REMARK    6  A    between atoms: _8  and  _9
REMARK    7  A    between atoms: _18  and  _20
REMARK    8  A    between atoms: _20  and  _21
REMARK    9  A    between atoms: _20  and  _23
REMARK   10  A    between atoms: _23  and  _24
REMARK   11  A    between atoms: _27  and  _29
REMARK   12  A    between atoms: _29  and  _30
REMARK   13  A    between atoms: _29  and  _32
REMARK   14  A    between atoms: _33  and  _34
REMARK   15  A    between atoms: _37  and  _39
REMARK   16  A    between atoms: _39  and  _40
REMARK   17  A    between atoms: _39  and  _42
REMARK   18  A    between atoms: _42  and  _43
REMARK   19  A    between atoms: _46  and  _48
REMARK   20  A    between atoms: _48  and  _49
REMARK   21  A    between atoms: _48  and  _51
REMARK   22  A    between atoms: _51  and  _52
REMARK   23  A    between atoms: _55  and  _57
REMARK   24  A    between atoms: _57  and  _58
REMARK   25  A    between atoms: _57  and  _60
REMARK   26  A    between atoms: _60  and  _61
REMARK   27  A    between atoms: _64  and  _66
REMARK   28  A    between atoms: _66  and  _67
REMARK   29  A    between atoms: _66  and  _69
REMARK   30  A    between atoms: _69  and  _70
REMARK   31  A    between atoms: _73  and  _75
REMARK   32  A    between atoms: _75  and  _76
REMARK   33  A    between atoms: _78  and  _80
REMARK   34  A    between atoms: _80  and  _81
REMARK   35  A    between atoms: _84  and  _86
REMARK   36  A    between atoms: _86  and  _87
REMARK   37  A    between atoms: _86  and  _89
REMARK   38  A    between atoms: _89  and  _90
REMARK   39  A    between atoms: _93  and  _95
REMARK   40  A    between atoms: _95  and  _96
REMARK   41  A    between atoms: _95  and  _98
REMARK   42  A    between atoms: _98  and  _99
REMARK   43  A    between atoms: _102  and  _104
REMARK   44  A    between atoms: _104  and  _105
REMARK   45  A    between atoms: _104  and  _107
REMARK   46  A    between atoms: _107  and  _108
REMARK   47  A    between atoms: _111  and  _113
REMARK   48  A    between atoms: _113  and  _114
REMARK   49  A    between atoms: _113  and  _116
REMARK   50  A    between atoms: _119  and  _121
REMARK   51  A    between atoms: _121  and  _122
REMARK   52  A    between atoms: _121  and  _124
REMARK   53  A    between atoms: _124  and  _125
REMARK   54  A    between atoms: _125  and  _126
REMARK   55  A    between atoms: _126  and  _127
REMARK   56  A    between atoms: _127  and  _128
REMARK   57  A    between atoms: _132  and  _134
REMARK   58  A    between atoms: _134  and  _135
REMARK   59  A    between atoms: _134  and  _137
REMARK   60  A    between atoms: _137  and  _138
REMARK   61  A    between atoms: _138  and  _139
REMARK   62  A    between atoms: _141  and  _143
REMARK   63  A    between atoms: _143  and  _144
REMARK   64  A    between atoms: _143  and  _146
REMARK   65  A    between atoms: _146  and  _147
REMARK   66  A    between atoms: _150  and  _152
REMARK   67  A    between atoms: _152  and  _153
REMARK   68  A    between atoms: _155  and  _157
REMARK   69  A    between atoms: _157  and  _158
REMARK   70  A    between atoms: _160  and  _162
REMARK   71  A    between atoms: _162  and  _163
REMARK   72  A    between atoms: _162  and  _165
REMARK   73  A    between atoms: _165  and  _166
REMARK   74  A    between atoms: _169  and  _171
REMARK   75  A    between atoms: _171  and  _172
REMARK   76  A    between atoms: _174  and  _176
REMARK   77  A    between atoms: _176  and  _177
REMARK   78  A    between atoms: _179  and  _181
REMARK   79  A    between atoms: _181  and  _182
REMARK   80  A    between atoms: _181  and  _184
REMARK   81  A    between atoms: _184  and  _185
REMARK   82  A    between atoms: _191  and  _193
REMARK   83  A    between atoms: _193  and  _194
REMARK   84  A    between atoms: _193  and  _196
REMARK   85  A    between atoms: _196  and  _197
REMARK   86  A    between atoms: _200  and  _202
REMARK   87  A    between atoms: _202  and  _203
REMARK   88  A    between atoms: _202  and  _205
REMARK   89  A    between atoms: _208  and  _210
REMARK   90  A    between atoms: _210  and  _211
REMARK   91  A    between atoms: _210  and  _213
REMARK   92  A    between atoms: _213  and  _214
REMARK   93  A    between atoms: _218  and  _219
REMARK   94  A    between atoms: _224  and  _226
REMARK   95  A    between atoms: _226  and  _227
REMARK   96  A    between atoms: _226  and  _229
REMARK   97  A    between atoms: _229  and  _230
REMARK   98  A    between atoms: _234  and  _235
REMARK   99  A    between atoms: _240  and  _242
REMARK  100  A    between atoms: _242  and  _243
REMARK  101  A    between atoms: _242  and  _245
REMARK  102  A    between atoms: _248  and  _250
REMARK  103  A    between atoms: _250  and  _251
REMARK  104  A    between atoms: _250  and  _253
REMARK  105  A    between atoms: _253  and  _254
REMARK  106  A    between atoms: _259  and  _261
REMARK  107  A    between atoms: _261  and  _262
REMARK  108  A    between atoms: _261  and  _264
REMARK  109  A    between atoms: _267  and  _269
REMARK  110  A    between atoms: _269  and  _270
REMARK  111  A    between atoms: _269  and  _272
REMARK  112  A    between atoms: _272  and  _273
REMARK  113  A    between atoms: _276  and  _278
REMARK  114  A    between atoms: _278  and  _279
REMARK  115  A    between atoms: _281  and  _283
REMARK  116  A    between atoms: _283  and  _284
REMARK  117  A    between atoms: _283  and  _286
REMARK  118  A    between atoms: _287  and  _288
REMARK  119  A    between atoms: _288  and  _289
REMARK  120  A    between atoms: _298  and  _300
REMARK  121  A    between atoms: _300  and  _301
REMARK  122  A    between atoms: _300  and  _303
REMARK  123  A    between atoms: _303  and  _304
REMARK  124  A    between atoms: _309  and  _311
REMARK  125  A    between atoms: _311  and  _312
REMARK  126  A    between atoms: _311  and  _314
REMARK  127  A    between atoms: _314  and  _315
REMARK  128  A    between atoms: _315  and  _316
REMARK  129  A    between atoms: _316  and  _317
REMARK  130  A    between atoms: _326  and  _328
REMARK  131  A    between atoms: _328  and  _329
REMARK  132  A    between atoms: _328  and  _331
REMARK  133  A    between atoms: _331  and  _332
REMARK  134  A    between atoms: _335  and  _337
REMARK  135  A    between atoms: _337  and  _338
REMARK  136  A    between atoms: _337  and  _340
REMARK  137  A    between atoms: _340  and  _341
REMARK  138  A    between atoms: _344  and  _346
REMARK  139  A    between atoms: _346  and  _347
REMARK  140  A    between atoms: _346  and  _349
REMARK  141  A    between atoms: _349  and  _350
REMARK  142  A    between atoms: _353  and  _355
REMARK  143  A    between atoms: _355  and  _356
REMARK  144  A    between atoms: _355  and  _358
REMARK  145  A    between atoms: _358  and  _359
REMARK  146  A    between atoms: _362  and  _364
REMARK  147  A    between atoms: _364  and  _365
REMARK  148  A    between atoms: _367  and  _369
REMARK  149  A    between atoms: _369  and  _370
REMARK  150  A    between atoms: _373  and  _375
REMARK  151  A    between atoms: _375  and  _376
REMARK  152  A    between atoms: _375  and  _378
REMARK  153  A    between atoms: _378  and  _379
REMARK  154  A    between atoms: _382  and  _384
REMARK  155  A    between atoms: _384  and  _385
REMARK  156  A    between atoms: _384  and  _387
REMARK  157  A    between atoms: _387  and  _388
REMARK  158  A    between atoms: _391  and  _393
REMARK  159  A    between atoms: _393  and  _394
REMARK  160  A    between atoms: _393  and  _396
REMARK  161  A    between atoms: _396  and  _397
REMARK  162  A    between atoms: _400  and  _402
REMARK  163  A    between atoms: _402  and  _403
REMARK  164  A    between atoms: _402  and  _405
REMARK  165  A    between atoms: _408  and  _410
REMARK  166  A    between atoms: _410  and  _411
REMARK  167  A    between atoms: _410  and  _413
REMARK  168  A    between atoms: _413  and  _414
REMARK  169  A    between atoms: _414  and  _415
REMARK  170  A    between atoms: _415  and  _416
REMARK  171  A    between atoms: _416  and  _417
REMARK  172  A    between atoms: _421  and  _423
REMARK  173  A    between atoms: _423  and  _424
REMARK  174  A    between atoms: _423  and  _426
REMARK  175  A    between atoms: _426  and  _427
REMARK  176  A    between atoms: _427  and  _428
REMARK  177  A    between atoms: _430  and  _432
REMARK  178  A    between atoms: _432  and  _433
REMARK  179  A    between atoms: _432  and  _435
REMARK  180  A    between atoms: _435  and  _436
REMARK  181  A    between atoms: _439  and  _441
REMARK  182  A    between atoms: _441  and  _442
REMARK  183  A    between atoms: _444  and  _446
REMARK  184  A    between atoms: _446  and  _447
REMARK  185  A    between atoms: _449  and  _451
REMARK  186  A    between atoms: _451  and  _452
REMARK  187  A    between atoms: _451  and  _454
REMARK  188  A    between atoms: _454  and  _455
REMARK  189  A    between atoms: _458  and  _460
REMARK  190  A    between atoms: _460  and  _461
REMARK  191  A    between atoms: _463  and  _465
REMARK  192  A    between atoms: _465  and  _466
REMARK  193  A    between atoms: _468  and  _470
REMARK  194  A    between atoms: _470  and  _471
REMARK  195  A    between atoms: _470  and  _473
REMARK  196  A    between atoms: _473  and  _474
REMARK  197  A    between atoms: _480  and  _482
REMARK  198  A    between atoms: _482  and  _483
REMARK  199  A    between atoms: _482  and  _485
REMARK  200  A    between atoms: _485  and  _486
REMARK  201  A    between atoms: _489  and  _491
REMARK  202  A    between atoms: _491  and  _492
REMARK  203  A    between atoms: _491  and  _494
REMARK  204  A    between atoms: _497  and  _499
REMARK  205  A    between atoms: _499  and  _500
REMARK  206  A    between atoms: _499  and  _502
REMARK  207  A    between atoms: _502  and  _503
REMARK  208  A    between atoms: _507  and  _508
REMARK  209  A    between atoms: _513  and  _515
REMARK  210  A    between atoms: _515  and  _516
REMARK  211  A    between atoms: _515  and  _518
REMARK  212  A    between atoms: _518  and  _519
REMARK  213  A    between atoms: _523  and  _524
REMARK  214  A    between atoms: _529  and  _531
REMARK  215  A    between atoms: _531  and  _532
REMARK  216  A    between atoms: _531  and  _534
REMARK  217  A    between atoms: _537  and  _539
REMARK  218  A    between atoms: _539  and  _540
REMARK  219  A    between atoms: _539  and  _542
REMARK  220  A    between atoms: _542  and  _543
REMARK  221  A    between atoms: _548  and  _550
REMARK  222  A    between atoms: _550  and  _551
REMARK  223  A    between atoms: _550  and  _553
REMARK  224  A    between atoms: _556  and  _558
REMARK  225  A    between atoms: _558  and  _559
REMARK  226  A    between atoms: _558  and  _561
REMARK  227  A    between atoms: _561  and  _562
REMARK  228  A    between atoms: _565  and  _567
REMARK  229  A    between atoms: _567  and  _568
REMARK  230  A    between atoms: _570  and  _572
REMARK  231  A    between atoms: _572  and  _573
REMARK  232  A    between atoms: _572  and  _575
REMARK  233  A    between atoms: _575  and  _576
REMARK  234  A    between atoms: _576  and  _577
REMARK  235  A    between atoms: _577  and  _578
REMARK  236  A    between atoms: _587  and  _589
REMARK  237  A    between atoms: _589  and  _590
REMARK  238  A    between atoms: _589  and  _592
REMARK  239  A    between atoms: _592  and  _593
REMARK                            x       y       z     vdW  Elec       q    Type
REMARK                         _______ _______ _______ _____ _____    ______ ____
ROOT
ATOM      1  O   HOH     1       8.944   7.687  19.172  0.00  0.00    +0.000 OA
ENDROOT
TORSDOF 0
REMARK  Name = ../refined-set-2016/2aoc/2aoc_pocket.pdb
REMARK  239 active torsions:
REMARK  status: ('A' for Active; 'I' for Inactive)
REMARK    1  A    between atoms: _1  and  _3
REMARK    2  A    between atoms: _3  and  _4
REMARK    3  A    between atoms: _3  and  _6
REMARK    4  A    between atoms: _6  and  _7
REMARK    5  A    between atoms: _7  and  _8
REMARK    6  A    between atoms: _8  and  _9
REMARK    7  A    between atoms: _18  and  _20
REMARK    8  A    between atoms: _20  and  _21
REMARK    9  A    between atoms: _20  and  _23
REMARK   10  A    between atoms: _23  and  _24
REMARK   11  A    between atoms: _27  and  _29
REMARK   12  A    between atoms: _29  and  _30
REMARK   13  A    between atoms: _29  and  _32
REMARK   14  A    between atoms: _33  and  _34
REMARK   15  A    between atoms: _37  and  _39
REMARK   16  A    between atoms: _39  and  _40
REMARK   17  A    between atoms: _39  and  _42
REMARK   18  A    between atoms: _42  and  _43
REMARK   19  A    between atoms: _46  and  _48
REMARK   20  A    between atoms: _48  and  _49
REMARK   21  A    between atoms: _48  and  _51
REMARK   22  A    between atoms: _51  and  _52
REMARK   23  A    between atoms: _55  and  _57
REMARK   24  A    between atoms: _57  and  _58
REMARK   25  A    between atoms: _57  and  _60
REMARK   26  A    between atoms: _60  and  _61
REMARK   27  A    between atoms: _64  and  _66
REMARK   28  A    between atoms: _66  and  _67
REMARK   29  A    between atoms: _66  and  _69
REMARK   30  A    between atoms: _69  and  _70
REMARK   31  A    between atoms: _73  and  _75
REMARK   32  A    between atoms: _75  and  _76
REMARK   33  A    between atoms: _78  and  _80
REMARK   34  A    between atoms: _80  and  _81
REMARK   35  A    between atoms: _84  and  _86
REMARK   36  A    between atoms: _86  and  _87
REMARK   37  A    between atoms: _86  and  _89
REMARK   38  A    between atoms: _89  and  _90
REMARK   39  A    between atoms: _93  and  _95
REMARK   40  A    between atoms: _95  and  _96
REMARK   41  A    between atoms: _95  and  _98
REMARK   42  A    between atoms: _98  and  _99
REMARK   43  A    between atoms: _102  and  _104
REMARK   44  A    between atoms: _104  and  _105
REMARK   45  A    between atoms: _104  and  _107
REMARK   46  A    between atoms: _107  and  _108
REMARK   47  A    between atoms: _111  and  _113
REMARK   48  A    between atoms: _113  and  _114
REMARK   49  A    between atoms: _113  and  _116
REMARK   50  A    between atoms: _119  and  _121
REMARK   51  A    between atoms: _121  and  _122
REMARK   52  A    between atoms: _121  and  _124
REMARK   53  A    between atoms: _124  and  _125
REMARK   54  A    between atoms: _125  and  _126
REMARK   55  A    between atoms: _126  and  _127
REMARK   56  A    between atoms: _127  and  _128
REMARK   57  A    between atoms: _132  and  _134
REMARK   58  A    between atoms: _134  and  _135
REMARK   59  A    between atoms: _134  and  _137
REMARK   60  A    between atoms: _137  and  _138
REMARK   61  A    between atoms: _138  and  _139
REMARK   62  A    between atoms: _141  and  _143
REMARK   63  A    between atoms: _143  and  _144
REMARK   64  A    between atoms: _143  and  _146
REMARK   65  A    between atoms: _146  and  _147
REMARK   66  A    between atoms: _150  and  _152
REMARK   67  A    between atoms: _152  and  _153
REMARK   68  A    between atoms: _155  and  _157
REMARK   69  A    between atoms: _157  and  _158
REMARK   70  A    between atoms: _160  and  _162
REMARK   71  A    between atoms: _162  and  _163
REMARK   72  A    between atoms: _162  and  _165
REMARK   73  A    between atoms: _165  and  _166
REMARK   74  A    between atoms: _169  and  _171
REMARK   75  A    between atoms: _171  and  _172
REMARK   76  A    between atoms: _174  and  _176
REMARK   77  A    between atoms: _176  and  _177
REMARK   78  A    between atoms: _179  and  _181
REMARK   79  A    between atoms: _181  and  _182
REMARK   80  A    between atoms: _181  and  _184
REMARK   81  A    between atoms: _184  and  _185
REMARK   82  A    between atoms: _191  and  _193
REMARK   83  A    between atoms: _193  and  _194
REMARK   84  A    between atoms: _193  and  _196
REMARK   85  A    between atoms: _196  and  _197
REMARK   86  A    between atoms: _200  and  _202
REMARK   87  A    between atoms: _202  and  _203
REMARK   88  A    between atoms: _202  and  _205
REMARK   89  A    between atoms: _208  and  _210
REMARK   90  A    between atoms: _210  and  _211
REMARK   91  A    between atoms: _210  and  _213
REMARK   92  A    between atoms: _213  and  _214
REMARK   93  A    between atoms: _218  and  _219
REMARK   94  A    between atoms: _224  and  _226
REMARK   95  A    between atoms: _226  and  _227
REMARK   96  A    between atoms: _226  and  _229
REMARK   97  A    between atoms: _229  and  _230
REMARK   98  A    between atoms: _234  and  _235
REMARK   99  A    between atoms: _240  and  _242
REMARK  100  A    between atoms: _242  and  _243
REMARK  101  A    between atoms: _242  and  _245
REMARK  102  A    between atoms: _248  and  _250
REMARK  103  A    between atoms: _250  and  _251
REMARK  104  A    between atoms: _250  and  _253
REMARK  105  A    between atoms: _253  and  _254
REMARK  106  A    between atoms: _259  and  _261
REMARK  107  A    between atoms: _261  and  _262
REMARK  108  A    between atoms: _261  and  _264
REMARK  109  A    between atoms: _267  and  _269
REMARK  110  A    between atoms: _269  and  _270
REMARK  111  A    between atoms: _269  and  _272
REMARK  112  A    between atoms: _272  and  _273
REMARK  113  A    between atoms: _276  and  _278
REMARK  114  A    between atoms: _278  and  _279
REMARK  115  A    between atoms: _281  and  _283
REMARK  116  A    between atoms: _283  and  _284
REMARK  117  A    between atoms: _283  and  _286
REMARK  118  A    between atoms: _287  and  _288
REMARK  119  A    between atoms: _288  and  _289
REMARK  120  A    between atoms: _298  and  _300
REMARK  121  A    between atoms: _300  and  _301
REMARK  122  A    between atoms: _300  and  _303
REMARK  123  A    between atoms: _303  and  _304
REMARK  124  A    between atoms: _309  and  _311
REMARK  125  A    between atoms: _311  and  _312
REMARK  126  A    between atoms: _311  and  _314
REMARK  127  A    between atoms: _314  and  _315
REMARK  128  A    between atoms: _315  and  _316
REMARK  129  A    between atoms: _316  and  _317
REMARK  130  A    between atoms: _326  and  _328
REMARK  131  A    between atoms: _328  and  _329
REMARK  132  A    between atoms: _328  and  _331
REMARK  133  A    between atoms: _331  and  _332
REMARK  134  A    between atoms: _335  and  _337
REMARK  135  A    between atoms: _337  and  _338
REMARK  136  A    between atoms: _337  and  _340
REMARK  137  A    between atoms: _340  and  _341
REMARK  138  A    between atoms: _344  and  _346
REMARK  139  A    between atoms: _346  and  _347
REMARK  140  A    between atoms: _346  and  _349
REMARK  141  A    between atoms: _349  and  _350
REMARK  142  A    between atoms: _353  and  _355
REMARK  143  A    between atoms: _355  and  _356
REMARK  144  A    between atoms: _355  and  _358
REMARK  145  A    between atoms: _358  and  _359
REMARK  146  A    between atoms: _362  and  _364
REMARK  147  A    between atoms: _364  and  _365
REMARK  148  A    between atoms: _367  and  _369
REMARK  149  A    between atoms: _369  and  _370
REMARK  150  A    between atoms: _373  and  _375
REMARK  151  A    between atoms: _375  and  _376
REMARK  152  A    between atoms: _375  and  _378
REMARK  153  A    between atoms: _378  and  _379
REMARK  154  A    between atoms: _382  and  _384
REMARK  155  A    between atoms: _384  and  _385
REMARK  156  A    between atoms: _384  and  _387
REMARK  157  A    between atoms: _387  and  _388
REMARK  158  A    between atoms: _391  and  _393
REMARK  159  A    between atoms: _393  and  _394
REMARK  160  A    between atoms: _393  and  _396
REMARK  161  A    between atoms: _396  and  _397
REMARK  162  A    between atoms: _400  and  _402
REMARK  163  A    between atoms: _402  and  _403
REMARK  164  A    between atoms: _402  and  _405
REMARK  165  A    between atoms: _408  and  _410
REMARK  166  A    between atoms: _410  and  _411
REMARK  167  A    between atoms: _410  and  _413
REMARK  168  A    between atoms: _413  and  _414
REMARK  169  A    between atoms: _414  and  _415
REMARK  170  A    between atoms: _415  and  _416
REMARK  171  A    between atoms: _416  and  _417
REMARK  172  A    between atoms: _421  and  _423
REMARK  173  A    between atoms: _423  and  _424
REMARK  174  A    between atoms: _423  and  _426
REMARK  175  A    between atoms: _426  and  _427
REMARK  176  A    between atoms: _427  and  _428
REMARK  177  A    between atoms: _430  and  _432
REMARK  178  A    between atoms: _432  and  _433
REMARK  179  A    between atoms: _432  and  _435
REMARK  180  A    between atoms: _435  and  _436
REMARK  181  A    between atoms: _439  and  _441
REMARK  182  A    between atoms: _441  and  _442
REMARK  183  A    between atoms: _444  and  _446
REMARK  184  A    between atoms: _446  and  _447
REMARK  185  A    between atoms: _449  and  _451
REMARK  186  A    between atoms: _451  and  _452
REMARK  187  A    between atoms: _451  and  _454
REMARK  188  A    between atoms: _454  and  _455
REMARK  189  A    between atoms: _458  and  _460
REMARK  190  A    between atoms: _460  and  _461
REMARK  191  A    between atoms: _463  and  _465
REMARK  192  A    between atoms: _465  and  _466
REMARK  193  A    between atoms: _468  and  _470
REMARK  194  A    between atoms: _470  and  _471
REMARK  195  A    between atoms: _470  and  _473
REMARK  196  A    between atoms: _473  and  _474
REMARK  197  A    between atoms: _480  and  _482
REMARK  198  A    between atoms: _482  and  _483
REMARK  199  A    between atoms: _482  and  _485
REMARK  200  A    between atoms: _485  and  _486
REMARK  201  A    between atoms: _489  and  _491
REMARK  202  A    between atoms: _491  and  _492
REMARK  203  A    between atoms: _491  and  _494
REMARK  204  A    between atoms: _497  and  _499
REMARK  205  A    between atoms: _499  and  _500
REMARK  206  A    between atoms: _499  and  _502
REMARK  207  A    between atoms: _502  and  _503
REMARK  208  A    between atoms: _507  and  _508
REMARK  209  A    between atoms: _513  and  _515
REMARK  210  A    between atoms: _515  and  _516
REMARK  211  A    between atoms: _515  and  _518
REMARK  212  A    between atoms: _518  and  _519
REMARK  213  A    between atoms: _523  and  _524
REMARK  214  A    between atoms: _529  and  _531
REMARK  215  A    between atoms: _531  and  _532
REMARK  216  A    between atoms: _531  and  _534
REMARK  217  A    between atoms: _537  and  _539
REMARK  218  A    between atoms: _539  and  _540
REMARK  219  A    between atoms: _539  and  _542
REMARK  220  A    between atoms: _542  and  _543
REMARK  221  A    between atoms: _548  and  _550
REMARK  222  A    between atoms: _550  and  _551
REMARK  223  A    between atoms: _550  and  _553
REMARK  224  A    between atoms: _556  and  _558
REMARK  225  A    between atoms: _558  and  _559
REMARK  226  A    between atoms: _558  and  _561
REMARK  227  A    between atoms: _561  and  _562
REMARK  228  A    between atoms: _565  and  _567
REMARK  229  A    between atoms: _567  and  _568
REMARK  230  A    between atoms: _570  and  _572
REMARK  231  A    between atoms: _572  and  _573
REMARK  232  A    between atoms: _572  and  _575
REMARK  233  A    between atoms: _575  and  _576
REMARK  234  A    between atoms: _576  and  _577
REMARK  235  A    between atoms: _577  and  _578
REMARK  236  A    between atoms: _587  and  _589
REMARK  237  A    between atoms: _589  and  _590
REMARK  238  A    between atoms: _589  and  _592
REMARK  239  A    between atoms: _592  and  _593
REMARK                            x       y       z     vdW  Elec       q    Type
REMARK                         _______ _______ _______ _____ _____    ______ ____
ROOT
ATOM      1  O   HOH     1       8.697  21.594  14.034  0.00  0.00    +0.000 OA
ENDROOT
TORSDOF 0
REMARK  Name = ../refined-set-2016/2aoc/2aoc_pocket.pdb
REMARK  239 active torsions:
REMARK  status: ('A' for Active; 'I' for Inactive)
REMARK    1  A    between atoms: _1  and  _3
REMARK    2  A    between atoms: _3  and  _4
REMARK    3  A    between atoms: _3  and  _6
REMARK    4  A    between atoms: _6  and  _7
REMARK    5  A    between atoms: _7  and  _8
REMARK    6  A    between atoms: _8  and  _9
REMARK    7  A    between atoms: _18  and  _20
REMARK    8  A    between atoms: _20  and  _21
REMARK    9  A    between atoms: _20  and  _23
REMARK   10  A    between atoms: _23  and  _24
REMARK   11  A    between atoms: _27  and  _29
REMARK   12  A    between atoms: _29  and  _30
REMARK   13  A    between atoms: _29  and  _32
REMARK   14  A    between atoms: _33  and  _34
REMARK   15  A    between atoms: _37  and  _39
REMARK   16  A    between atoms: _39  and  _40
REMARK   17  A    between atoms: _39  and  _42
REMARK   18  A    between atoms: _42  and  _43
REMARK   19  A    between atoms: _46  and  _48
REMARK   20  A    between atoms: _48  and  _49
REMARK   21  A    between atoms: _48  and  _51
REMARK   22  A    between atoms: _51  and  _52
REMARK   23  A    between atoms: _55  and  _57
REMARK   24  A    between atoms: _57  and  _58
REMARK   25  A    between atoms: _57  and  _60
REMARK   26  A    between atoms: _60  and  _61
REMARK   27  A    between atoms: _64  and  _66
REMARK   28  A    between atoms: _66  and  _67
REMARK   29  A    between atoms: _66  and  _69
REMARK   30  A    between atoms: _69  and  _70
REMARK   31  A    between atoms: _73  and  _75
REMARK   32  A    between atoms: _75  and  _76
REMARK   33  A    between atoms: _78  and  _80
REMARK   34  A    between atoms: _80  and  _81
REMARK   35  A    between atoms: _84  and  _86
REMARK   36  A    between atoms: _86  and  _87
REMARK   37  A    between atoms: _86  and  _89
REMARK   38  A    between atoms: _89  and  _90
REMARK   39  A    between atoms: _93  and  _95
REMARK   40  A    between atoms: _95  and  _96
REMARK   41  A    between atoms: _95  and  _98
REMARK   42  A    between atoms: _98  and  _99
REMARK   43  A    between atoms: _102  and  _104
REMARK   44  A    between atoms: _104  and  _105
REMARK   45  A    between atoms: _104  and  _107
REMARK   46  A    between atoms: _107  and  _108
REMARK   47  A    between atoms: _111  and  _113
REMARK   48  A    between atoms: _113  and  _114
REMARK   49  A    between atoms: _113  and  _116
REMARK   50  A    between atoms: _119  and  _121
REMARK   51  A    between atoms: _121  and  _122
REMARK   52  A    between atoms: _121  and  _124
REMARK   53  A    between atoms: _124  and  _125
REMARK   54  A    between atoms: _125  and  _126
REMARK   55  A    between atoms: _126  and  _127
REMARK   56  A    between atoms: _127  and  _128
REMARK   57  A    between atoms: _132  and  _134
REMARK   58  A    between atoms: _134  and  _135
REMARK   59  A    between atoms: _134  and  _137
REMARK   60  A    between atoms: _137  and  _138
REMARK   61  A    between atoms: _138  and  _139
REMARK   62  A    between atoms: _141  and  _143
REMARK   63  A    between atoms: _143  and  _144
REMARK   64  A    between atoms: _143  and  _146
REMARK   65  A    between atoms: _146  and  _147
REMARK   66  A    between atoms: _150  and  _152
REMARK   67  A    between atoms: _152  and  _153
REMARK   68  A    between atoms: _155  and  _157
REMARK   69  A    between atoms: _157  and  _158
REMARK   70  A    between atoms: _160  and  _162
REMARK   71  A    between atoms: _162  and  _163
REMARK   72  A    between atoms: _162  and  _165
REMARK   73  A    between atoms: _165  and  _166
REMARK   74  A    between atoms: _169  and  _171
REMARK   75  A    between atoms: _171  and  _172
REMARK   76  A    between atoms: _174  and  _176
REMARK   77  A    between atoms: _176  and  _177
REMARK   78  A    between atoms: _179  and  _181
REMARK   79  A    between atoms: _181  and  _182
REMARK   80  A    between atoms: _181  and  _184
REMARK   81  A    between atoms: _184  and  _185
REMARK   82  A    between atoms: _191  and  _193
REMARK   83  A    between atoms: _193  and  _194
REMARK   84  A    between atoms: _193  and  _196
REMARK   85  A    between atoms: _196  and  _197
REMARK   86  A    between atoms: _200  and  _202
REMARK   87  A    between atoms: _202  and  _203
REMARK   88  A    between atoms: _202  and  _205
REMARK   89  A    between atoms: _208  and  _210
REMARK   90  A    between atoms: _210  and  _211
REMARK   91  A    between atoms: _210  and  _213
REMARK   92  A    between atoms: _213  and  _214
REMARK   93  A    between atoms: _218  and  _219
REMARK   94  A    between atoms: _224  and  _226
REMARK   95  A    between atoms: _226  and  _227
REMARK   96  A    between atoms: _226  and  _229
REMARK   97  A    between atoms: _229  and  _230
REMARK   98  A    between atoms: _234  and  _235
REMARK   99  A    between atoms: _240  and  _242
REMARK  100  A    between atoms: _242  and  _243
REMARK  101  A    between atoms: _242  and  _245
REMARK  102  A    between atoms: _248  and  _250
REMARK  103  A    between atoms: _250  and  _251
REMARK  104  A    between atoms: _250  and  _253
REMARK  105  A    between atoms: _253  and  _254
REMARK  106  A    between atoms: _259  and  _261
REMARK  107  A    between atoms: _261  and  _262
REMARK  108  A    between atoms: _261  and  _264
REMARK  109  A    between atoms: _267  and  _269
REMARK  110  A    between atoms: _269  and  _270
REMARK  111  A    between atoms: _269  and  _272
REMARK  112  A    between atoms: _272  and  _273
REMARK  113  A    between atoms: _276  and  _278
REMARK  114  A    between atoms: _278  and  _279
REMARK  115  A    between atoms: _281  and  _283
REMARK  116  A    between atoms: _283  and  _284
REMARK  117  A    between atoms: _283  and  _286
REMARK  118  A    between atoms: _287  and  _288
REMARK  119  A    between atoms: _288  and  _289
REMARK  120  A    between atoms: _298  and  _300
REMARK  121  A    between atoms: _300  and  _301
REMARK  122  A    between atoms: _300  and  _303
REMARK  123  A    between atoms: _303  and  _304
REMARK  124  A    between atoms: _309  and  _311
REMARK  125  A    between atoms: _311  and  _312
REMARK  126  A    between atoms: _311  and  _314
REMARK  127  A    between atoms: _314  and  _315
REMARK  128  A    between atoms: _315  and  _316
REMARK  129  A    between atoms: _316  and  _317
REMARK  130  A    between atoms: _326  and  _328
REMARK  131  A    between atoms: _328  and  _329
REMARK  132  A    between atoms: _328  and  _331
REMARK  133  A    between atoms: _331  and  _332
REMARK  134  A    between atoms: _335  and  _337
REMARK  135  A    between atoms: _337  and  _338
REMARK  136  A    between atoms: _337  and  _340
REMARK  137  A    between atoms: _340  and  _341
REMARK  138  A    between atoms: _344  and  _346
REMARK  139  A    between atoms: _346  and  _347
REMARK  140  A    between atoms: _346  and  _349
REMARK  141  A    between atoms: _349  and  _350
REMARK  142  A    between atoms: _353  and  _355
REMARK  143  A    between atoms: _355  and  _356
REMARK  144  A    between atoms: _355  and  _358
REMARK  145  A    between atoms: _358  and  _359
REMARK  146  A    between atoms: _362  and  _364
REMARK  147  A    between atoms: _364  and  _365
REMARK  148  A    between atoms: _367  and  _369
REMARK  149  A    between atoms: _369  and  _370
REMARK  150  A    between atoms: _373  and  _375
REMARK  151  A    between atoms: _375  and  _376
REMARK  152  A    between atoms: _375  and  _378
REMARK  153  A    between atoms: _378  and  _379
REMARK  154  A    between atoms: _382  and  _384
REMARK  155  A    between atoms: _384  and  _385
REMARK  156  A    between atoms: _384  and  _387
REMARK  157  A    between atoms: _387  and  _388
REMARK  158  A    between atoms: _391  and  _393
REMARK  159  A    between atoms: _393  and  _394
REMARK  160  A    between atoms: _393  and  _396
REMARK  161  A    between atoms: _396  and  _397
REMARK  162  A    between atoms: _400  and  _402
REMARK  163  A    between atoms: _402  and  _403
REMARK  164  A    between atoms: _402  and  _405
REMARK  165  A    between atoms: _408  and  _410
REMARK  166  A    between atoms: _410  and  _411
REMARK  167  A    between atoms: _410  and  _413
REMARK  168  A    between atoms: _413  and  _414
REMARK  169  A    between atoms: _414  and  _415
REMARK  170  A    between atoms: _415  and  _416
REMARK  171  A    between atoms: _416  and  _417
REMARK  172  A    between atoms: _421  and  _423
REMARK  173  A    between atoms: _423  and  _424
REMARK  174  A    between atoms: _423  and  _426
REMARK  175  A    between atoms: _426  and  _427
REMARK  176  A    between atoms: _427  and  _428
REMARK  177  A    between atoms: _430  and  _432
REMARK  178  A    between atoms: _432  and  _433
REMARK  179  A    between atoms: _432  and  _435
REMARK  180  A    between atoms: _435  and  _436
REMARK  181  A    between atoms: _439  and  _441
REMARK  182  A    between atoms: _441  and  _442
REMARK  183  A    between atoms: _444  and  _446
REMARK  184  A    between atoms: _446  and  _447
REMARK  185  A    between atoms: _449  and  _451
REMARK  186  A    between atoms: _451  and  _452
REMARK  187  A    between atoms: _451  and  _454
REMARK  188  A    between atoms: _454  and  _455
REMARK  189  A    between atoms: _458  and  _460
REMARK  190  A    between atoms: _460  and  _461
REMARK  191  A    between atoms: _463  and  _465
REMARK  192  A    between atoms: _465  and  _466
REMARK  193  A    between atoms: _468  and  _470
REMARK  194  A    between atoms: _470  and  _471
REMARK  195  A    between atoms: _470  and  _473
REMARK  196  A    between atoms: _473  and  _474
REMARK  197  A    between atoms: _480  and  _482
REMARK  198  A    between atoms: _482  and  _483
REMARK  199  A    between atoms: _482  and  _485
REMARK  200  A    between atoms: _485  and  _486
REMARK  201  A    between atoms: _489  and  _491
REMARK  202  A    between atoms: _491  and  _492
REMARK  203  A    between atoms: _491  and  _494
REMARK  204  A    between atoms: _497  and  _499
REMARK  205  A    between atoms: _499  and  _500
REMARK  206  A    between atoms: _499  and  _502
REMARK  207  A    between atoms: _502  and  _503
REMARK  208  A    between atoms: _507  and  _508
REMARK  209  A    between atoms: _513  and  _515
REMARK  210  A    between atoms: _515  and  _516
REMARK  211  A    between atoms: _515  and  _518
REMARK  212  A    between atoms: _518  and  _519
REMARK  213  A    between atoms: _523  and  _524
REMARK  214  A    between atoms: _529  and  _531
REMARK  215  A    between atoms: _531  and  _532
REMARK  216  A    between atoms: _531  and  _534
REMARK  217  A    between atoms: _537  and  _539
REMARK  218  A    between atoms: _539  and  _540
REMARK  219  A    between atoms: _539  and  _542
REMARK  220  A    between atoms: _542  and  _543
REMARK  221  A    between atoms: _548  and  _550
REMARK  222  A    between atoms: _550  and  _551
REMARK  223  A    between atoms: _550  and  _553
REMARK  224  A    between atoms: _556  and  _558
REMARK  225  A    between atoms: _558  and  _559
REMARK  226  A    between atoms: _558  and  _561
REMARK  227  A    between atoms: _561  and  _562
REMARK  228  A    between atoms: _565  and  _567
REMARK  229  A    between atoms: _567  and  _568
REMARK  230  A    between atoms: _570  and  _572
REMARK  231  A    between atoms: _572  and  _573
REMARK  232  A    between atoms: _572  and  _575
REMARK  233  A    between atoms: _575  and  _576
REMARK  234  A    between atoms: _576  and  _577
REMARK  235  A    between atoms: _577  and  _578
REMARK  236  A    between atoms: _587  and  _589
REMARK  237  A    between atoms: _589  and  _590
REMARK  238  A    between atoms: _589  and  _592
REMARK  239  A    between atoms: _592  and  _593
REMARK                            x       y       z     vdW  Elec       q    Type
REMARK                         _______ _______ _______ _____ _____    ______ ____
ROOT
ATOM      1  O   HOH     1       6.955  22.377  11.904  0.00  0.00    +0.000 OA
ENDROOT
TORSDOF 0
REMARK  Name = ../refined-set-2016/2aoc/2aoc_pocket.pdb
REMARK  239 active torsions:
REMARK  status: ('A' for Active; 'I' for Inactive)
REMARK    1  A    between atoms: _1  and  _3
REMARK    2  A    between atoms: _3  and  _4
REMARK    3  A    between atoms: _3  and  _6
REMARK    4  A    between atoms: _6  and  _7
REMARK    5  A    between atoms: _7  and  _8
REMARK    6  A    between atoms: _8  and  _9
REMARK    7  A    between atoms: _18  and  _20
REMARK    8  A    between atoms: _20  and  _21
REMARK    9  A    between atoms: _20  and  _23
REMARK   10  A    between atoms: _23  and  _24
REMARK   11  A    between atoms: _27  and  _29
REMARK   12  A    between atoms: _29  and  _30
REMARK   13  A    between atoms: _29  and  _32
REMARK   14  A    between atoms: _33  and  _34
REMARK   15  A    between atoms: _37  and  _39
REMARK   16  A    between atoms: _39  and  _40
REMARK   17  A    between atoms: _39  and  _42
REMARK   18  A    between atoms: _42  and  _43
REMARK   19  A    between atoms: _46  and  _48
REMARK   20  A    between atoms: _48  and  _49
REMARK   21  A    between atoms: _48  and  _51
REMARK   22  A    between atoms: _51  and  _52
REMARK   23  A    between atoms: _55  and  _57
REMARK   24  A    between atoms: _57  and  _58
REMARK   25  A    between atoms: _57  and  _60
REMARK   26  A    between atoms: _60  and  _61
REMARK   27  A    between atoms: _64  and  _66
REMARK   28  A    between atoms: _66  and  _67
REMARK   29  A    between atoms: _66  and  _69
REMARK   30  A    between atoms: _69  and  _70
REMARK   31  A    between atoms: _73  and  _75
REMARK   32  A    between atoms: _75  and  _76
REMARK   33  A    between atoms: _78  and  _80
REMARK   34  A    between atoms: _80  and  _81
REMARK   35  A    between atoms: _84  and  _86
REMARK   36  A    between atoms: _86  and  _87
REMARK   37  A    between atoms: _86  and  _89
REMARK   38  A    between atoms: _89  and  _90
REMARK   39  A    between atoms: _93  and  _95
REMARK   40  A    between atoms: _95  and  _96
REMARK   41  A    between atoms: _95  and  _98
REMARK   42  A    between atoms: _98  and  _99
REMARK   43  A    between atoms: _102  and  _104
REMARK   44  A    between atoms: _104  and  _105
REMARK   45  A    between atoms: _104  and  _107
REMARK   46  A    between atoms: _107  and  _108
REMARK   47  A    between atoms: _111  and  _113
REMARK   48  A    between atoms: _113  and  _114
REMARK   49  A    between atoms: _113  and  _116
REMARK   50  A    between atoms: _119  and  _121
REMARK   51  A    between atoms: _121  and  _122
REMARK   52  A    between atoms: _121  and  _124
REMARK   53  A    between atoms: _124  and  _125
REMARK   54  A    between atoms: _125  and  _126
REMARK   55  A    between atoms: _126  and  _127
REMARK   56  A    between atoms: _127  and  _128
REMARK   57  A    between atoms: _132  and  _134
REMARK   58  A    between atoms: _134  and  _135
REMARK   59  A    between atoms: _134  and  _137
REMARK   60  A    between atoms: _137  and  _138
REMARK   61  A    between atoms: _138  and  _139
REMARK   62  A    between atoms: _141  and  _143
REMARK   63  A    between atoms: _143  and  _144
REMARK   64  A    between atoms: _143  and  _146
REMARK   65  A    between atoms: _146  and  _147
REMARK   66  A    between atoms: _150  and  _152
REMARK   67  A    between atoms: _152  and  _153
REMARK   68  A    between atoms: _155  and  _157
REMARK   69  A    between atoms: _157  and  _158
REMARK   70  A    between atoms: _160  and  _162
REMARK   71  A    between atoms: _162  and  _163
REMARK   72  A    between atoms: _162  and  _165
REMARK   73  A    between atoms: _165  and  _166
REMARK   74  A    between atoms: _169  and  _171
REMARK   75  A    between atoms: _171  and  _172
REMARK   76  A    between atoms: _174  and  _176
REMARK   77  A    between atoms: _176  and  _177
REMARK   78  A    between atoms: _179  and  _181
REMARK   79  A    between atoms: _181  and  _182
REMARK   80  A    between atoms: _181  and  _184
REMARK   81  A    between atoms: _184  and  _185
REMARK   82  A    between atoms: _191  and  _193
REMARK   83  A    between atoms: _193  and  _194
REMARK   84  A    between atoms: _193  and  _196
REMARK   85  A    between atoms: _196  and  _197
REMARK   86  A    between atoms: _200  and  _202
REMARK   87  A    between atoms: _202  and  _203
REMARK   88  A    between atoms: _202  and  _205
REMARK   89  A    between atoms: _208  and  _210
REMARK   90  A    between atoms: _210  and  _211
REMARK   91  A    between atoms: _210  and  _213
REMARK   92  A    between atoms: _213  and  _214
REMARK   93  A    between atoms: _218  and  _219
REMARK   94  A    between atoms: _224  and  _226
REMARK   95  A    between atoms: _226  and  _227
REMARK   96  A    between atoms: _226  and  _229
REMARK   97  A    between atoms: _229  and  _230
REMARK   98  A    between atoms: _234  and  _235
REMARK   99  A    between atoms: _240  and  _242
REMARK  100  A    between atoms: _242  and  _243
REMARK  101  A    between atoms: _242  and  _245
REMARK  102  A    between atoms: _248  and  _250
REMARK  103  A    between atoms: _250  and  _251
REMARK  104  A    between atoms: _250  and  _253
REMARK  105  A    between atoms: _253  and  _254
REMARK  106  A    between atoms: _259  and  _261
REMARK  107  A    between atoms: _261  and  _262
REMARK  108  A    between atoms: _261  and  _264
REMARK  109  A    between atoms: _267  and  _269
REMARK  110  A    between atoms: _269  and  _270
REMARK  111  A    between atoms: _269  and  _272
REMARK  112  A    between atoms: _272  and  _273
REMARK  113  A    between atoms: _276  and  _278
REMARK  114  A    between atoms: _278  and  _279
REMARK  115  A    between atoms: _281  and  _283
REMARK  116  A    between atoms: _283  and  _284
REMARK  117  A    between atoms: _283  and  _286
REMARK  118  A    between atoms: _287  and  _288
REMARK  119  A    between atoms: _288  and  _289
REMARK  120  A    between atoms: _298  and  _300
REMARK  121  A    between atoms: _300  and  _301
REMARK  122  A    between atoms: _300  and  _303
REMARK  123  A    between atoms: _303  and  _304
REMARK  124  A    between atoms: _309  and  _311
REMARK  125  A    between atoms: _311  and  _312
REMARK  126  A    between atoms: _311  and  _314
REMARK  127  A    between atoms: _314  and  _315
REMARK  128  A    between atoms: _315  and  _316
REMARK  129  A    between atoms: _316  and  _317
REMARK  130  A    between atoms: _326  and  _328
REMARK  131  A    between atoms: _328  and  _329
REMARK  132  A    between atoms: _328  and  _331
REMARK  133  A    between atoms: _331  and  _332
REMARK  134  A    between atoms: _335  and  _337
REMARK  135  A    between atoms: _337  and  _338
REMARK  136  A    between atoms: _337  and  _340
REMARK  137  A    between atoms: _340  and  _341
REMARK  138  A    between atoms: _344  and  _346
REMARK  139  A    between atoms: _346  and  _347
REMARK  140  A    between atoms: _346  and  _349
REMARK  141  A    between atoms: _349  and  _350
REMARK  142  A    between atoms: _353  and  _355
REMARK  143  A    between atoms: _355  and  _356
REMARK  144  A    between atoms: _355  and  _358
REMARK  145  A    between atoms: _358  and  _359
REMARK  146  A    between atoms: _362  and  _364
REMARK  147  A    between atoms: _364  and  _365
REMARK  148  A    between atoms: _367  and  _369
REMARK  149  A    between atoms: _369  and  _370
REMARK  150  A    between atoms: _373  and  _375
REMARK  151  A    between atoms: _375  and  _376
REMARK  152  A    between atoms: _375  and  _378
REMARK  153  A    between atoms: _378  and  _379
REMARK  154  A    between atoms: _382  and  _384
REMARK  155  A    between atoms: _384  and  _385
REMARK  156  A    between atoms: _384  and  _387
REMARK  157  A    between atoms: _387  and  _388
REMARK  158  A    between atoms: _391  and  _393
REMARK  159  A    between atoms: _393  and  _394
REMARK  160  A    between atoms: _393  and  _396
REMARK  161  A    between atoms: _396  and  _397
REMARK  162  A    between atoms: _400  and  _402
REMARK  163  A    between atoms: _402  and  _403
REMARK  164  A    between atoms: _402  and  _405
REMARK  165  A    between atoms: _408  and  _410
REMARK  166  A    between atoms: _410  and  _411
REMARK  167  A    between atoms: _410  and  _413
REMARK  168  A    between atoms: _413  and  _414
REMARK  169  A    between atoms: _414  and  _415
REMARK  170  A    between atoms: _415  and  _416
REMARK  171  A    between atoms: _416  and  _417
REMARK  172  A    between atoms: _421  and  _423
REMARK  173  A    between atoms: _423  and  _424
REMARK  174  A    between atoms: _423  and  _426
REMARK  175  A    between atoms: _426  and  _427
REMARK  176  A    between atoms: _427  and  _428
REMARK  177  A    between atoms: _430  and  _432
REMARK  178  A    between atoms: _432  and  _433
REMARK  179  A    between atoms: _432  and  _435
REMARK  180  A    between atoms: _435  and  _436
REMARK  181  A    between atoms: _439  and  _441
REMARK  182  A    between atoms: _441  and  _442
REMARK  183  A    between atoms: _444  and  _446
REMARK  184  A    between atoms: _446  and  _447
REMARK  185  A    between atoms: _449  and  _451
REMARK  186  A    between atoms: _451  and  _452
REMARK  187  A    between atoms: _451  and  _454
REMARK  188  A    between atoms: _454  and  _455
REMARK  189  A    between atoms: _458  and  _460
REMARK  190  A    between atoms: _460  and  _461
REMARK  191  A    between atoms: _463  and  _465
REMARK  192  A    between atoms: _465  and  _466
REMARK  193  A    between atoms: _468  and  _470
REMARK  194  A    between atoms: _470  and  _471
REMARK  195  A    between atoms: _470  and  _473
REMARK  196  A    between atoms: _473  and  _474
REMARK  197  A    between atoms: _480  and  _482
REMARK  198  A    between atoms: _482  and  _483
REMARK  199  A    between atoms: _482  and  _485
REMARK  200  A    between atoms: _485  and  _486
REMARK  201  A    between atoms: _489  and  _491
REMARK  202  A    between atoms: _491  and  _492
REMARK  203  A    between atoms: _491  and  _494
REMARK  204  A    between atoms: _497  and  _499
REMARK  205  A    between atoms: _499  and  _500
REMARK  206  A    between atoms: _499  and  _502
REMARK  207  A    between atoms: _502  and  _503
REMARK  208  A    between atoms: _507  and  _508
REMARK  209  A    between atoms: _513  and  _515
REMARK  210  A    between atoms: _515  and  _516
REMARK  211  A    between atoms: _515  and  _518
REMARK  212  A    between atoms: _518  and  _519
REMARK  213  A    between atoms: _523  and  _524
REMARK  214  A    between atoms: _529  and  _531
REMARK  215  A    between atoms: _531  and  _532
REMARK  216  A    between atoms: _531  and  _534
REMARK  217  A    between atoms: _537  and  _539
REMARK  218  A    between atoms: _539  and  _540
REMARK  219  A    between atoms: _539  and  _542
REMARK  220  A    between atoms: _542  and  _543
REMARK  221  A    between atoms: _548  and  _550
REMARK  222  A    between atoms: _550  and  _551
REMARK  223  A    between atoms: _550  and  _553
REMARK  224  A    between atoms: _556  and  _558
REMARK  225  A    between atoms: _558  and  _559
REMARK  226  A    between atoms: _558  and  _561
REMARK  227  A    between atoms: _561  and  _562
REMARK  228  A    between atoms: _565  and  _567
REMARK  229  A    between atoms: _567  and  _568
REMARK  230  A    between atoms: _570  and  _572
REMARK  231  A    between atoms: _572  and  _573
REMARK  232  A    between atoms: _572  and  _575
REMARK  233  A    between atoms: _575  and  _576
REMARK  234  A    between atoms: _576  and  _577
REMARK  235  A    between atoms: _577  and  _578
REMARK  236  A    between atoms: _587  and  _589
REMARK  237  A    between atoms: _589  and  _590
REMARK  238  A    between atoms: _589  and  _592
REMARK  239  A    between atoms: _592  and  _593
REMARK                            x       y       z     vdW  Elec       q    Type
REMARK                         _______ _______ _______ _____ _____    ______ ____
ROOT
ATOM      1  O   HOH     1      15.088  15.740  12.147  0.00  0.00    +0.000 OA
ENDROOT
TORSDOF 0
REMARK  Name = ../refined-set-2016/2aoc/2aoc_pocket.pdb
REMARK  239 active torsions:
REMARK  status: ('A' for Active; 'I' for Inactive)
REMARK    1  A    between atoms: _1  and  _3
REMARK    2  A    between atoms: _3  and  _4
REMARK    3  A    between atoms: _3  and  _6
REMARK    4  A    between atoms: _6  and  _7
REMARK    5  A    between atoms: _7  and  _8
REMARK    6  A    between atoms: _8  and  _9
REMARK    7  A    between atoms: _18  and  _20
REMARK    8  A    between atoms: _20  and  _21
REMARK    9  A    between atoms: _20  and  _23
REMARK   10  A    between atoms: _23  and  _24
REMARK   11  A    between atoms: _27  and  _29
REMARK   12  A    between atoms: _29  and  _30
REMARK   13  A    between atoms: _29  and  _32
REMARK   14  A    between atoms: _33  and  _34
REMARK   15  A    between atoms: _37  and  _39
REMARK   16  A    between atoms: _39  and  _40
REMARK   17  A    between atoms: _39  and  _42
REMARK   18  A    between atoms: _42  and  _43
REMARK   19  A    between atoms: _46  and  _48
REMARK   20  A    between atoms: _48  and  _49
REMARK   21  A    between atoms: _48  and  _51
REMARK   22  A    between atoms: _51  and  _52
REMARK   23  A    between atoms: _55  and  _57
REMARK   24  A    between atoms: _57  and  _58
REMARK   25  A    between atoms: _57  and  _60
REMARK   26  A    between atoms: _60  and  _61
REMARK   27  A    between atoms: _64  and  _66
REMARK   28  A    between atoms: _66  and  _67
REMARK   29  A    between atoms: _66  and  _69
REMARK   30  A    between atoms: _69  and  _70
REMARK   31  A    between atoms: _73  and  _75
REMARK   32  A    between atoms: _75  and  _76
REMARK   33  A    between atoms: _78  and  _80
REMARK   34  A    between atoms: _80  and  _81
REMARK   35  A    between atoms: _84  and  _86
REMARK   36  A    between atoms: _86  and  _87
REMARK   37  A    between atoms: _86  and  _89
REMARK   38  A    between atoms: _89  and  _90
REMARK   39  A    between atoms: _93  and  _95
REMARK   40  A    between atoms: _95  and  _96
REMARK   41  A    between atoms: _95  and  _98
REMARK   42  A    between atoms: _98  and  _99
REMARK   43  A    between atoms: _102  and  _104
REMARK   44  A    between atoms: _104  and  _105
REMARK   45  A    between atoms: _104  and  _107
REMARK   46  A    between atoms: _107  and  _108
REMARK   47  A    between atoms: _111  and  _113
REMARK   48  A    between atoms: _113  and  _114
REMARK   49  A    between atoms: _113  and  _116
REMARK   50  A    between atoms: _119  and  _121
REMARK   51  A    between atoms: _121  and  _122
REMARK   52  A    between atoms: _121  and  _124
REMARK   53  A    between atoms: _124  and  _125
REMARK   54  A    between atoms: _125  and  _126
REMARK   55  A    between atoms: _126  and  _127
REMARK   56  A    between atoms: _127  and  _128
REMARK   57  A    between atoms: _132  and  _134
REMARK   58  A    between atoms: _134  and  _135
REMARK   59  A    between atoms: _134  and  _137
REMARK   60  A    between atoms: _137  and  _138
REMARK   61  A    between atoms: _138  and  _139
REMARK   62  A    between atoms: _141  and  _143
REMARK   63  A    between atoms: _143  and  _144
REMARK   64  A    between atoms: _143  and  _146
REMARK   65  A    between atoms: _146  and  _147
REMARK   66  A    between atoms: _150  and  _152
REMARK   67  A    between atoms: _152  and  _153
REMARK   68  A    between atoms: _155  and  _157
REMARK   69  A    between atoms: _157  and  _158
REMARK   70  A    between atoms: _160  and  _162
REMARK   71  A    between atoms: _162  and  _163
REMARK   72  A    between atoms: _162  and  _165
REMARK   73  A    between atoms: _165  and  _166
REMARK   74  A    between atoms: _169  and  _171
REMARK   75  A    between atoms: _171  and  _172
REMARK   76  A    between atoms: _174  and  _176
REMARK   77  A    between atoms: _176  and  _177
REMARK   78  A    between atoms: _179  and  _181
REMARK   79  A    between atoms: _181  and  _182
REMARK   80  A    between atoms: _181  and  _184
REMARK   81  A    between atoms: _184  and  _185
REMARK   82  A    between atoms: _191  and  _193
REMARK   83  A    between atoms: _193  and  _194
REMARK   84  A    between atoms: _193  and  _196
REMARK   85  A    between atoms: _196  and  _197
REMARK   86  A    between atoms: _200  and  _202
REMARK   87  A    between atoms: _202  and  _203
REMARK   88  A    between atoms: _202  and  _205
REMARK   89  A    between atoms: _208  and  _210
REMARK   90  A    between atoms: _210  and  _211
REMARK   91  A    between atoms: _210  and  _213
REMARK   92  A    between atoms: _213  and  _214
REMARK   93  A    between atoms: _218  and  _219
REMARK   94  A    between atoms: _224  and  _226
REMARK   95  A    between atoms: _226  and  _227
REMARK   96  A    between atoms: _226  and  _229
REMARK   97  A    between atoms: _229  and  _230
REMARK   98  A    between atoms: _234  and  _235
REMARK   99  A    between atoms: _240  and  _242
REMARK  100  A    between atoms: _242  and  _243
REMARK  101  A    between atoms: _242  and  _245
REMARK  102  A    between atoms: _248  and  _250
REMARK  103  A    between atoms: _250  and  _251
REMARK  104  A    between atoms: _250  and  _253
REMARK  105  A    between atoms: _253  and  _254
REMARK  106  A    between atoms: _259  and  _261
REMARK  107  A    between atoms: _261  and  _262
REMARK  108  A    between atoms: _261  and  _264
REMARK  109  A    between atoms: _267  and  _269
REMARK  110  A    between atoms: _269  and  _270
REMARK  111  A    between atoms: _269  and  _272
REMARK  112  A    between atoms: _272  and  _273
REMARK  113  A    between atoms: _276  and  _278
REMARK  114  A    between atoms: _278  and  _279
REMARK  115  A    between atoms: _281  and  _283
REMARK  116  A    between atoms: _283  and  _284
REMARK  117  A    between atoms: _283  and  _286
REMARK  118  A    between atoms: _287  and  _288
REMARK  119  A    between atoms: _288  and  _289
REMARK  120  A    between atoms: _298  and  _300
REMARK  121  A    between atoms: _300  and  _301
REMARK  122  A    between atoms: _300  and  _303
REMARK  123  A    between atoms: _303  and  _304
REMARK  124  A    between atoms: _309  and  _311
REMARK  125  A    between atoms: _311  and  _312
REMARK  126  A    between atoms: _311  and  _314
REMARK  127  A    between atoms: _314  and  _315
REMARK  128  A    between atoms: _315  and  _316
REMARK  129  A    between atoms: _316  and  _317
REMARK  130  A    between atoms: _326  and  _328
REMARK  131  A    between atoms: _328  and  _329
REMARK  132  A    between atoms: _328  and  _331
REMARK  133  A    between atoms: _331  and  _332
REMARK  134  A    between atoms: _335  and  _337
REMARK  135  A    between atoms: _337  and  _338
REMARK  136  A    between atoms: _337  and  _340
REMARK  137  A    between atoms: _340  and  _341
REMARK  138  A    between atoms: _344  and  _346
REMARK  139  A    between atoms: _346  and  _347
REMARK  140  A    between atoms: _346  and  _349
REMARK  141  A    between atoms: _349  and  _350
REMARK  142  A    between atoms: _353  and  _355
REMARK  143  A    between atoms: _355  and  _356
REMARK  144  A    between atoms: _355  and  _358
REMARK  145  A    between atoms: _358  and  _359
REMARK  146  A    between atoms: _362  and  _364
REMARK  147  A    between atoms: _364  and  _365
REMARK  148  A    between atoms: _367  and  _369
REMARK  149  A    between atoms: _369  and  _370
REMARK  150  A    between atoms: _373  and  _375
REMARK  151  A    between atoms: _375  and  _376
REMARK  152  A    between atoms: _375  and  _378
REMARK  153  A    between atoms: _378  and  _379
REMARK  154  A    between atoms: _382  and  _384
REMARK  155  A    between atoms: _384  and  _385
REMARK  156  A    between atoms: _384  and  _387
REMARK  157  A    between atoms: _387  and  _388
REMARK  158  A    between atoms: _391  and  _393
REMARK  159  A    between atoms: _393  and  _394
REMARK  160  A    between atoms: _393  and  _396
REMARK  161  A    between atoms: _396  and  _397
REMARK  162  A    between atoms: _400  and  _402
REMARK  163  A    between atoms: _402  and  _403
REMARK  164  A    between atoms: _402  and  _405
REMARK  165  A    between atoms: _408  and  _410
REMARK  166  A    between atoms: _410  and  _411
REMARK  167  A    between atoms: _410  and  _413
REMARK  168  A    between atoms: _413  and  _414
REMARK  169  A    between atoms: _414  and  _415
REMARK  170  A    between atoms: _415  and  _416
REMARK  171  A    between atoms: _416  and  _417
REMARK  172  A    between atoms: _421  and  _423
REMARK  173  A    between atoms: _423  and  _424
REMARK  174  A    between atoms: _423  and  _426
REMARK  175  A    between atoms: _426  and  _427
REMARK  176  A    between atoms: _427  and  _428
REMARK  177  A    between atoms: _430  and  _432
REMARK  178  A    between atoms: _432  and  _433
REMARK  179  A    between atoms: _432  and  _435
REMARK  180  A    between atoms: _435  and  _436
REMARK  181  A    between atoms: _439  and  _441
REMARK  182  A    between atoms: _441  and  _442
REMARK  183  A    between atoms: _444  and  _446
REMARK  184  A    between atoms: _446  and  _447
REMARK  185  A    between atoms: _449  and  _451
REMARK  186  A    between atoms: _451  and  _452
REMARK  187  A    between atoms: _451  and  _454
REMARK  188  A    between atoms: _454  and  _455
REMARK  189  A    between atoms: _458  and  _460
REMARK  190  A    between atoms: _460  and  _461
REMARK  191  A    between atoms: _463  and  _465
REMARK  192  A    between atoms: _465  and  _466
REMARK  193  A    between atoms: _468  and  _470
REMARK  194  A    between atoms: _470  and  _471
REMARK  195  A    between atoms: _470  and  _473
REMARK  196  A    between atoms: _473  and  _474
REMARK  197  A    between atoms: _480  and  _482
REMARK  198  A    between atoms: _482  and  _483
REMARK  199  A    between atoms: _482  and  _485
REMARK  200  A    between atoms: _485  and  _486
REMARK  201  A    between atoms: _489  and  _491
REMARK  202  A    between atoms: _491  and  _492
REMARK  203  A    between atoms: _491  and  _494
REMARK  204  A    between atoms: _497  and  _499
REMARK  205  A    between atoms: _499  and  _500
REMARK  206  A    between atoms: _499  and  _502
REMARK  207  A    between atoms: _502  and  _503
REMARK  208  A    between atoms: _507  and  _508
REMARK  209  A    between atoms: _513  and  _515
REMARK  210  A    between atoms: _515  and  _516
REMARK  211  A    between atoms: _515  and  _518
REMARK  212  A    between atoms: _518  and  _519
REMARK  213  A    between atoms: _523  and  _524
REMARK  214  A    between atoms: _529  and  _531
REMARK  215  A    between atoms: _531  and  _532
REMARK  216  A    between atoms: _531  and  _534
REMARK  217  A    between atoms: _537  and  _539
REMARK  218  A    between atoms: _539  and  _540
REMARK  219  A    between atoms: _539  and  _542
REMARK  220  A    between atoms: _542  and  _543
REMARK  221  A    between atoms: _548  and  _550
REMARK  222  A    between atoms: _550  and  _551
REMARK  223  A    between atoms: _550  and  _553
REMARK  224  A    between atoms: _556  and  _558
REMARK  225  A    between atoms: _558  and  _559
REMARK  226  A    between atoms: _558  and  _561
REMARK  227  A    between atoms: _561  and  _562
REMARK  228  A    between atoms: _565  and  _567
REMARK  229  A    between atoms: _567  and  _568
REMARK  230  A    between atoms: _570  and  _572
REMARK  231  A    between atoms: _572  and  _573
REMARK  232  A    between atoms: _572  and  _575
REMARK  233  A    between atoms: _575  and  _576
REMARK  234  A    between atoms: _576  and  _577
REMARK  235  A    between atoms: _577  and  _578
REMARK  236  A    between atoms: _587  and  _589
REMARK  237  A    between atoms: _589  and  _590
REMARK  238  A    between atoms: _589  and  _592
REMARK  239  A    between atoms: _592  and  _593
REMARK                            x       y       z     vdW  Elec       q    Type
REMARK                         _______ _______ _______ _____ _____    ______ ____
ROOT
ATOM      1  O   HOH     1       6.400  16.092  25.834  0.00  0.00    +0.000 OA
ENDROOT
TORSDOF 0
REMARK  Name = ../refined-set-2016/2aoc/2aoc_pocket.pdb
REMARK  239 active torsions:
REMARK  status: ('A' for Active; 'I' for Inactive)
REMARK    1  A    between atoms: _1  and  _3
REMARK    2  A    between atoms: _3  and  _4
REMARK    3  A    between atoms: _3  and  _6
REMARK    4  A    between atoms: _6  and  _7
REMARK    5  A    between atoms: _7  and  _8
REMARK    6  A    between atoms: _8  and  _9
REMARK    7  A    between atoms: _18  and  _20
REMARK    8  A    between atoms: _20  and  _21
REMARK    9  A    between atoms: _20  and  _23
REMARK   10  A    between atoms: _23  and  _24
REMARK   11  A    between atoms: _27  and  _29
REMARK   12  A    between atoms: _29  and  _30
REMARK   13  A    between atoms: _29  and  _32
REMARK   14  A    between atoms: _33  and  _34
REMARK   15  A    between atoms: _37  and  _39
REMARK   16  A    between atoms: _39  and  _40
REMARK   17  A    between atoms: _39  and  _42
REMARK   18  A    between atoms: _42  and  _43
REMARK   19  A    between atoms: _46  and  _48
REMARK   20  A    between atoms: _48  and  _49
REMARK   21  A    between atoms: _48  and  _51
REMARK   22  A    between atoms: _51  and  _52
REMARK   23  A    between atoms: _55  and  _57
REMARK   24  A    between atoms: _57  and  _58
REMARK   25  A    between atoms: _57  and  _60
REMARK   26  A    between atoms: _60  and  _61
REMARK   27  A    between atoms: _64  and  _66
REMARK   28  A    between atoms: _66  and  _67
REMARK   29  A    between atoms: _66  and  _69
REMARK   30  A    between atoms: _69  and  _70
REMARK   31  A    between atoms: _73  and  _75
REMARK   32  A    between atoms: _75  and  _76
REMARK   33  A    between atoms: _78  and  _80
REMARK   34  A    between atoms: _80  and  _81
REMARK   35  A    between atoms: _84  and  _86
REMARK   36  A    between atoms: _86  and  _87
REMARK   37  A    between atoms: _86  and  _89
REMARK   38  A    between atoms: _89  and  _90
REMARK   39  A    between atoms: _93  and  _95
REMARK   40  A    between atoms: _95  and  _96
REMARK   41  A    between atoms: _95  and  _98
REMARK   42  A    between atoms: _98  and  _99
REMARK   43  A    between atoms: _102  and  _104
REMARK   44  A    between atoms: _104  and  _105
REMARK   45  A    between atoms: _104  and  _107
REMARK   46  A    between atoms: _107  and  _108
REMARK   47  A    between atoms: _111  and  _113
REMARK   48  A    between atoms: _113  and  _114
REMARK   49  A    between atoms: _113  and  _116
REMARK   50  A    between atoms: _119  and  _121
REMARK   51  A    between atoms: _121  and  _122
REMARK   52  A    between atoms: _121  and  _124
REMARK   53  A    between atoms: _124  and  _125
REMARK   54  A    between atoms: _125  and  _126
REMARK   55  A    between atoms: _126  and  _127
REMARK   56  A    between atoms: _127  and  _128
REMARK   57  A    between atoms: _132  and  _134
REMARK   58  A    between atoms: _134  and  _135
REMARK   59  A    between atoms: _134  and  _137
REMARK   60  A    between atoms: _137  and  _138
REMARK   61  A    between atoms: _138  and  _139
REMARK   62  A    between atoms: _141  and  _143
REMARK   63  A    between atoms: _143  and  _144
REMARK   64  A    between atoms: _143  and  _146
REMARK   65  A    between atoms: _146  and  _147
REMARK   66  A    between atoms: _150  and  _152
REMARK   67  A    between atoms: _152  and  _153
REMARK   68  A    between atoms: _155  and  _157
REMARK   69  A    between atoms: _157  and  _158
REMARK   70  A    between atoms: _160  and  _162
REMARK   71  A    between atoms: _162  and  _163
REMARK   72  A    between atoms: _162  and  _165
REMARK   73  A    between atoms: _165  and  _166
REMARK   74  A    between atoms: _169  and  _171
REMARK   75  A    between atoms: _171  and  _172
REMARK   76  A    between atoms: _174  and  _176
REMARK   77  A    between atoms: _176  and  _177
REMARK   78  A    between atoms: _179  and  _181
REMARK   79  A    between atoms: _181  and  _182
REMARK   80  A    between atoms: _181  and  _184
REMARK   81  A    between atoms: _184  and  _185
REMARK   82  A    between atoms: _191  and  _193
REMARK   83  A    between atoms: _193  and  _194
REMARK   84  A    between atoms: _193  and  _196
REMARK   85  A    between atoms: _196  and  _197
REMARK   86  A    between atoms: _200  and  _202
REMARK   87  A    between atoms: _202  and  _203
REMARK   88  A    between atoms: _202  and  _205
REMARK   89  A    between atoms: _208  and  _210
REMARK   90  A    between atoms: _210  and  _211
REMARK   91  A    between atoms: _210  and  _213
REMARK   92  A    between atoms: _213  and  _214
REMARK   93  A    between atoms: _218  and  _219
REMARK   94  A    between atoms: _224  and  _226
REMARK   95  A    between atoms: _226  and  _227
REMARK   96  A    between atoms: _226  and  _229
REMARK   97  A    between atoms: _229  and  _230
REMARK   98  A    between atoms: _234  and  _235
REMARK   99  A    between atoms: _240  and  _242
REMARK  100  A    between atoms: _242  and  _243
REMARK  101  A    between atoms: _242  and  _245
REMARK  102  A    between atoms: _248  and  _250
REMARK  103  A    between atoms: _250  and  _251
REMARK  104  A    between atoms: _250  and  _253
REMARK  105  A    between atoms: _253  and  _254
REMARK  106  A    between atoms: _259  and  _261
REMARK  107  A    between atoms: _261  and  _262
REMARK  108  A    between atoms: _261  and  _264
REMARK  109  A    between atoms: _267  and  _269
REMARK  110  A    between atoms: _269  and  _270
REMARK  111  A    between atoms: _269  and  _272
REMARK  112  A    between atoms: _272  and  _273
REMARK  113  A    between atoms: _276  and  _278
REMARK  114  A    between atoms: _278  and  _279
REMARK  115  A    between atoms: _281  and  _283
REMARK  116  A    between atoms: _283  and  _284
REMARK  117  A    between atoms: _283  and  _286
REMARK  118  A    between atoms: _287  and  _288
REMARK  119  A    between atoms: _288  and  _289
REMARK  120  A    between atoms: _298  and  _300
REMARK  121  A    between atoms: _300  and  _301
REMARK  122  A    between atoms: _300  and  _303
REMARK  123  A    between atoms: _303  and  _304
REMARK  124  A    between atoms: _309  and  _311
REMARK  125  A    between atoms: _311  and  _312
REMARK  126  A    between atoms: _311  and  _314
REMARK  127  A    between atoms: _314  and  _315
REMARK  128  A    between atoms: _315  and  _316
REMARK  129  A    between atoms: _316  and  _317
REMARK  130  A    between atoms: _326  and  _328
REMARK  131  A    between atoms: _328  and  _329
REMARK  132  A    between atoms: _328  and  _331
REMARK  133  A    between atoms: _331  and  _332
REMARK  134  A    between atoms: _335  and  _337
REMARK  135  A    between atoms: _337  and  _338
REMARK  136  A    between atoms: _337  and  _340
REMARK  137  A    between atoms: _340  and  _341
REMARK  138  A    between atoms: _344  and  _346
REMARK  139  A    between atoms: _346  and  _347
REMARK  140  A    between atoms: _346  and  _349
REMARK  141  A    between atoms: _349  and  _350
REMARK  142  A    between atoms: _353  and  _355
REMARK  143  A    between atoms: _355  and  _356
REMARK  144  A    between atoms: _355  and  _358
REMARK  145  A    between atoms: _358  and  _359
REMARK  146  A    between atoms: _362  and  _364
REMARK  147  A    between atoms: _364  and  _365
REMARK  148  A    between atoms: _367  and  _369
REMARK  149  A    between atoms: _369  and  _370
REMARK  150  A    between atoms: _373  and  _375
REMARK  151  A    between atoms: _375  and  _376
REMARK  152  A    between atoms: _375  and  _378
REMARK  153  A    between atoms: _378  and  _379
REMARK  154  A    between atoms: _382  and  _384
REMARK  155  A    between atoms: _384  and  _385
REMARK  156  A    between atoms: _384  and  _387
REMARK  157  A    between atoms: _387  and  _388
REMARK  158  A    between atoms: _391  and  _393
REMARK  159  A    between atoms: _393  and  _394
REMARK  160  A    between atoms: _393  and  _396
REMARK  161  A    between atoms: _396  and  _397
REMARK  162  A    between atoms: _400  and  _402
REMARK  163  A    between atoms: _402  and  _403
REMARK  164  A    between atoms: _402  and  _405
REMARK  165  A    between atoms: _408  and  _410
REMARK  166  A    between atoms: _410  and  _411
REMARK  167  A    between atoms: _410  and  _413
REMARK  168  A    between atoms: _413  and  _414
REMARK  169  A    between atoms: _414  and  _415
REMARK  170  A    between atoms: _415  and  _416
REMARK  171  A    between atoms: _416  and  _417
REMARK  172  A    between atoms: _421  and  _423
REMARK  173  A    between atoms: _423  and  _424
REMARK  174  A    between atoms: _423  and  _426
REMARK  175  A    between atoms: _426  and  _427
REMARK  176  A    between atoms: _427  and  _428
REMARK  177  A    between atoms: _430  and  _432
REMARK  178  A    between atoms: _432  and  _433
REMARK  179  A    between atoms: _432  and  _435
REMARK  180  A    between atoms: _435  and  _436
REMARK  181  A    between atoms: _439  and  _441
REMARK  182  A    between atoms: _441  and  _442
REMARK  183  A    between atoms: _444  and  _446
REMARK  184  A    between atoms: _446  and  _447
REMARK  185  A    between atoms: _449  and  _451
REMARK  186  A    between atoms: _451  and  _452
REMARK  187  A    between atoms: _451  and  _454
REMARK  188  A    between atoms: _454  and  _455
REMARK  189  A    between atoms: _458  and  _460
REMARK  190  A    between atoms: _460  and  _461
REMARK  191  A    between atoms: _463  and  _465
REMARK  192  A    between atoms: _465  and  _466
REMARK  193  A    between atoms: _468  and  _470
REMARK  194  A    between atoms: _470  and  _471
REMARK  195  A    between atoms: _470  and  _473
REMARK  196  A    between atoms: _473  and  _474
REMARK  197  A    between atoms: _480  and  _482
REMARK  198  A    between atoms: _482  and  _483
REMARK  199  A    between atoms: _482  and  _485
REMARK  200  A    between atoms: _485  and  _486
REMARK  201  A    between atoms: _489  and  _491
REMARK  202  A    between atoms: _491  and  _492
REMARK  203  A    between atoms: _491  and  _494
REMARK  204  A    between atoms: _497  and  _499
REMARK  205  A    between atoms: _499  and  _500
REMARK  206  A    between atoms: _499  and  _502
REMARK  207  A    between atoms: _502  and  _503
REMARK  208  A    between atoms: _507  and  _508
REMARK  209  A    between atoms: _513  and  _515
REMARK  210  A    between atoms: _515  and  _516
REMARK  211  A    between atoms: _515  and  _518
REMARK  212  A    between atoms: _518  and  _519
REMARK  213  A    between atoms: _523  and  _524
REMARK  214  A    between atoms: _529  and  _531
REMARK  215  A    between atoms: _531  and  _532
REMARK  216  A    between atoms: _531  and  _534
REMARK  217  A    between atoms: _537  and  _539
REMARK  218  A    between atoms: _539  and  _540
REMARK  219  A    between atoms: _539  and  _542
REMARK  220  A    between atoms: _542  and  _543
REMARK  221  A    between atoms: _548  and  _550
REMARK  222  A    between atoms: _550  and  _551
REMARK  223  A    between atoms: _550  and  _553
REMARK  224  A    between atoms: _556  and  _558
REMARK  225  A    between atoms: _558  and  _559
REMARK  226  A    between atoms: _558  and  _561
REMARK  227  A    between atoms: _561  and  _562
REMARK  228  A    between atoms: _565  and  _567
REMARK  229  A    between atoms: _567  and  _568
REMARK  230  A    between atoms: _570  and  _572
REMARK  231  A    between atoms: _572  and  _573
REMARK  232  A    between atoms: _572  and  _575
REMARK  233  A    between atoms: _575  and  _576
REMARK  234  A    between atoms: _576  and  _577
REMARK  235  A    between atoms: _577  and  _578
REMARK  236  A    between atoms: _587  and  _589
REMARK  237  A    between atoms: _589  and  _590
REMARK  238  A    between atoms: _589  and  _592
REMARK  239  A    between atoms: _592  and  _593
REMARK                            x       y       z     vdW  Elec       q    Type
REMARK                         _______ _______ _______ _____ _____    ______ ____
ROOT
ATOM      1  O   HOH     1       4.044  19.243  23.080  0.00  0.00    +0.000 OA
ENDROOT
TORSDOF 0
REMARK  Name = ../refined-set-2016/2aoc/2aoc_pocket.pdb
REMARK  239 active torsions:
REMARK  status: ('A' for Active; 'I' for Inactive)
REMARK    1  A    between atoms: _1  and  _3
REMARK    2  A    between atoms: _3  and  _4
REMARK    3  A    between atoms: _3  and  _6
REMARK    4  A    between atoms: _6  and  _7
REMARK    5  A    between atoms: _7  and  _8
REMARK    6  A    between atoms: _8  and  _9
REMARK    7  A    between atoms: _18  and  _20
REMARK    8  A    between atoms: _20  and  _21
REMARK    9  A    between atoms: _20  and  _23
REMARK   10  A    between atoms: _23  and  _24
REMARK   11  A    between atoms: _27  and  _29
REMARK   12  A    between atoms: _29  and  _30
REMARK   13  A    between atoms: _29  and  _32
REMARK   14  A    between atoms: _33  and  _34
REMARK   15  A    between atoms: _37  and  _39
REMARK   16  A    between atoms: _39  and  _40
REMARK   17  A    between atoms: _39  and  _42
REMARK   18  A    between atoms: _42  and  _43
REMARK   19  A    between atoms: _46  and  _48
REMARK   20  A    between atoms: _48  and  _49
REMARK   21  A    between atoms: _48  and  _51
REMARK   22  A    between atoms: _51  and  _52
REMARK   23  A    between atoms: _55  and  _57
REMARK   24  A    between atoms: _57  and  _58
REMARK   25  A    between atoms: _57  and  _60
REMARK   26  A    between atoms: _60  and  _61
REMARK   27  A    between atoms: _64  and  _66
REMARK   28  A    between atoms: _66  and  _67
REMARK   29  A    between atoms: _66  and  _69
REMARK   30  A    between atoms: _69  and  _70
REMARK   31  A    between atoms: _73  and  _75
REMARK   32  A    between atoms: _75  and  _76
REMARK   33  A    between atoms: _78  and  _80
REMARK   34  A    between atoms: _80  and  _81
REMARK   35  A    between atoms: _84  and  _86
REMARK   36  A    between atoms: _86  and  _87
REMARK   37  A    between atoms: _86  and  _89
REMARK   38  A    between atoms: _89  and  _90
REMARK   39  A    between atoms: _93  and  _95
REMARK   40  A    between atoms: _95  and  _96
REMARK   41  A    between atoms: _95  and  _98
REMARK   42  A    between atoms: _98  and  _99
REMARK   43  A    between atoms: _102  and  _104
REMARK   44  A    between atoms: _104  and  _105
REMARK   45  A    between atoms: _104  and  _107
REMARK   46  A    between atoms: _107  and  _108
REMARK   47  A    between atoms: _111  and  _113
REMARK   48  A    between atoms: _113  and  _114
REMARK   49  A    between atoms: _113  and  _116
REMARK   50  A    between atoms: _119  and  _121
REMARK   51  A    between atoms: _121  and  _122
REMARK   52  A    between atoms: _121  and  _124
REMARK   53  A    between atoms: _124  and  _125
REMARK   54  A    between atoms: _125  and  _126
REMARK   55  A    between atoms: _126  and  _127
REMARK   56  A    between atoms: _127  and  _128
REMARK   57  A    between atoms: _132  and  _134
REMARK   58  A    between atoms: _134  and  _135
REMARK   59  A    between atoms: _134  and  _137
REMARK   60  A    between atoms: _137  and  _138
REMARK   61  A    between atoms: _138  and  _139
REMARK   62  A    between atoms: _141  and  _143
REMARK   63  A    between atoms: _143  and  _144
REMARK   64  A    between atoms: _143  and  _146
REMARK   65  A    between atoms: _146  and  _147
REMARK   66  A    between atoms: _150  and  _152
REMARK   67  A    between atoms: _152  and  _153
REMARK   68  A    between atoms: _155  and  _157
REMARK   69  A    between atoms: _157  and  _158
REMARK   70  A    between atoms: _160  and  _162
REMARK   71  A    between atoms: _162  and  _163
REMARK   72  A    between atoms: _162  and  _165
REMARK   73  A    between atoms: _165  and  _166
REMARK   74  A    between atoms: _169  and  _171
REMARK   75  A    between atoms: _171  and  _172
REMARK   76  A    between atoms: _174  and  _176
REMARK   77  A    between atoms: _176  and  _177
REMARK   78  A    between atoms: _179  and  _181
REMARK   79  A    between atoms: _181  and  _182
REMARK   80  A    between atoms: _181  and  _184
REMARK   81  A    between atoms: _184  and  _185
REMARK   82  A    between atoms: _191  and  _193
REMARK   83  A    between atoms: _193  and  _194
REMARK   84  A    between atoms: _193  and  _196
REMARK   85  A    between atoms: _196  and  _197
REMARK   86  A    between atoms: _200  and  _202
REMARK   87  A    between atoms: _202  and  _203
REMARK   88  A    between atoms: _202  and  _205
REMARK   89  A    between atoms: _208  and  _210
REMARK   90  A    between atoms: _210  and  _211
REMARK   91  A    between atoms: _210  and  _213
REMARK   92  A    between atoms: _213  and  _214
REMARK   93  A    between atoms: _218  and  _219
REMARK   94  A    between atoms: _224  and  _226
REMARK   95  A    between atoms: _226  and  _227
REMARK   96  A    between atoms: _226  and  _229
REMARK   97  A    between atoms: _229  and  _230
REMARK   98  A    between atoms: _234  and  _235
REMARK   99  A    between atoms: _240  and  _242
REMARK  100  A    between atoms: _242  and  _243
REMARK  101  A    between atoms: _242  and  _245
REMARK  102  A    between atoms: _248  and  _250
REMARK  103  A    between atoms: _250  and  _251
REMARK  104  A    between atoms: _250  and  _253
REMARK  105  A    between atoms: _253  and  _254
REMARK  106  A    between atoms: _259  and  _261
REMARK  107  A    between atoms: _261  and  _262
REMARK  108  A    between atoms: _261  and  _264
REMARK  109  A    between atoms: _267  and  _269
REMARK  110  A    between atoms: _269  and  _270
REMARK  111  A    between atoms: _269  and  _272
REMARK  112  A    between atoms: _272  and  _273
REMARK  113  A    between atoms: _276  and  _278
REMARK  114  A    between atoms: _278  and  _279
REMARK  115  A    between atoms: _281  and  _283
REMARK  116  A    between atoms: _283  and  _284
REMARK  117  A    between atoms: _283  and  _286
REMARK  118  A    between atoms: _287  and  _288
REMARK  119  A    between atoms: _288  and  _289
REMARK  120  A    between atoms: _298  and  _300
REMARK  121  A    between atoms: _300  and  _301
REMARK  122  A    between atoms: _300  and  _303
REMARK  123  A    between atoms: _303  and  _304
REMARK  124  A    between atoms: _309  and  _311
REMARK  125  A    between atoms: _311  and  _312
REMARK  126  A    between atoms: _311  and  _314
REMARK  127  A    between atoms: _314  and  _315
REMARK  128  A    between atoms: _315  and  _316
REMARK  129  A    between atoms: _316  and  _317
REMARK  130  A    between atoms: _326  and  _328
REMARK  131  A    between atoms: _328  and  _329
REMARK  132  A    between atoms: _328  and  _331
REMARK  133  A    between atoms: _331  and  _332
REMARK  134  A    between atoms: _335  and  _337
REMARK  135  A    between atoms: _337  and  _338
REMARK  136  A    between atoms: _337  and  _340
REMARK  137  A    between atoms: _340  and  _341
REMARK  138  A    between atoms: _344  and  _346
REMARK  139  A    between atoms: _346  and  _347
REMARK  140  A    between atoms: _346  and  _349
REMARK  141  A    between atoms: _349  and  _350
REMARK  142  A    between atoms: _353  and  _355
REMARK  143  A    between atoms: _355  and  _356
REMARK  144  A    between atoms: _355  and  _358
REMARK  145  A    between atoms: _358  and  _359
REMARK  146  A    between atoms: _362  and  _364
REMARK  147  A    between atoms: _364  and  _365
REMARK  148  A    between atoms: _367  and  _369
REMARK  149  A    between atoms: _369  and  _370
REMARK  150  A    between atoms: _373  and  _375
REMARK  151  A    between atoms: _375  and  _376
REMARK  152  A    between atoms: _375  and  _378
REMARK  153  A    between atoms: _378  and  _379
REMARK  154  A    between atoms: _382  and  _384
REMARK  155  A    between atoms: _384  and  _385
REMARK  156  A    between atoms: _384  and  _387
REMARK  157  A    between atoms: _387  and  _388
REMARK  158  A    between atoms: _391  and  _393
REMARK  159  A    between atoms: _393  and  _394
REMARK  160  A    between atoms: _393  and  _396
REMARK  161  A    between atoms: _396  and  _397
REMARK  162  A    between atoms: _400  and  _402
REMARK  163  A    between atoms: _402  and  _403
REMARK  164  A    between atoms: _402  and  _405
REMARK  165  A    between atoms: _408  and  _410
REMARK  166  A    between atoms: _410  and  _411
REMARK  167  A    between atoms: _410  and  _413
REMARK  168  A    between atoms: _413  and  _414
REMARK  169  A    between atoms: _414  and  _415
REMARK  170  A    between atoms: _415  and  _416
REMARK  171  A    between atoms: _416  and  _417
REMARK  172  A    between atoms: _421  and  _423
REMARK  173  A    between atoms: _423  and  _424
REMARK  174  A    between atoms: _423  and  _426
REMARK  175  A    between atoms: _426  and  _427
REMARK  176  A    between atoms: _427  and  _428
REMARK  177  A    between atoms: _430  and  _432
REMARK  178  A    between atoms: _432  and  _433
REMARK  179  A    between atoms: _432  and  _435
REMARK  180  A    between atoms: _435  and  _436
REMARK  181  A    between atoms: _439  and  _441
REMARK  182  A    between atoms: _441  and  _442
REMARK  183  A    between atoms: _444  and  _446
REMARK  184  A    between atoms: _446  and  _447
REMARK  185  A    between atoms: _449  and  _451
REMARK  186  A    between atoms: _451  and  _452
REMARK  187  A    between atoms: _451  and  _454
REMARK  188  A    between atoms: _454  and  _455
REMARK  189  A    between atoms: _458  and  _460
REMARK  190  A    between atoms: _460  and  _461
REMARK  191  A    between atoms: _463  and  _465
REMARK  192  A    between atoms: _465  and  _466
REMARK  193  A    between atoms: _468  and  _470
REMARK  194  A    between atoms: _470  and  _471
REMARK  195  A    between atoms: _470  and  _473
REMARK  196  A    between atoms: _473  and  _474
REMARK  197  A    between atoms: _480  and  _482
REMARK  198  A    between atoms: _482  and  _483
REMARK  199  A    between atoms: _482  and  _485
REMARK  200  A    between atoms: _485  and  _486
REMARK  201  A    between atoms: _489  and  _491
REMARK  202  A    between atoms: _491  and  _492
REMARK  203  A    between atoms: _491  and  _494
REMARK  204  A    between atoms: _497  and  _499
REMARK  205  A    between atoms: _499  and  _500
REMARK  206  A    between atoms: _499  and  _502
REMARK  207  A    between atoms: _502  and  _503
REMARK  208  A    between atoms: _507  and  _508
REMARK  209  A    between atoms: _513  and  _515
REMARK  210  A    between atoms: _515  and  _516
REMARK  211  A    between atoms: _515  and  _518
REMARK  212  A    between atoms: _518  and  _519
REMARK  213  A    between atoms: _523  and  _524
REMARK  214  A    between atoms: _529  and  _531
REMARK  215  A    between atoms: _531  and  _532
REMARK  216  A    between atoms: _531  and  _534
REMARK  217  A    between atoms: _537  and  _539
REMARK  218  A    between atoms: _539  and  _540
REMARK  219  A    between atoms: _539  and  _542
REMARK  220  A    between atoms: _542  and  _543
REMARK  221  A    between atoms: _548  and  _550
REMARK  222  A    between atoms: _550  and  _551
REMARK  223  A    between atoms: _550  and  _553
REMARK  224  A    between atoms: _556  and  _558
REMARK  225  A    between atoms: _558  and  _559
REMARK  226  A    between atoms: _558  and  _561
REMARK  227  A    between atoms: _561  and  _562
REMARK  228  A    between atoms: _565  and  _567
REMARK  229  A    between atoms: _567  and  _568
REMARK  230  A    between atoms: _570  and  _572
REMARK  231  A    between atoms: _572  and  _573
REMARK  232  A    between atoms: _572  and  _575
REMARK  233  A    between atoms: _575  and  _576
REMARK  234  A    between atoms: _576  and  _577
REMARK  235  A    between atoms: _577  and  _578
REMARK  236  A    between atoms: _587  and  _589
REMARK  237  A    between atoms: _589  and  _590
REMARK  238  A    between atoms: _589  and  _592
REMARK  239  A    between atoms: _592  and  _593
REMARK                            x       y       z     vdW  Elec       q    Type
REMARK                         _______ _______ _______ _____ _____    ______ ____
ROOT
ATOM      1  O   HOH     1       6.722  14.694  20.488  0.00  0.00    +0.000 OA
ENDROOT
TORSDOF 0
REMARK  Name = ../refined-set-2016/2aoc/2aoc_pocket.pdb
REMARK  239 active torsions:
REMARK  status: ('A' for Active; 'I' for Inactive)
REMARK    1  A    between atoms: _1  and  _3
REMARK    2  A    between atoms: _3  and  _4
REMARK    3  A    between atoms: _3  and  _6
REMARK    4  A    between atoms: _6  and  _7
REMARK    5  A    between atoms: _7  and  _8
REMARK    6  A    between atoms: _8  and  _9
REMARK    7  A    between atoms: _18  and  _20
REMARK    8  A    between atoms: _20  and  _21
REMARK    9  A    between atoms: _20  and  _23
REMARK   10  A    between atoms: _23  and  _24
REMARK   11  A    between atoms: _27  and  _29
REMARK   12  A    between atoms: _29  and  _30
REMARK   13  A    between atoms: _29  and  _32
REMARK   14  A    between atoms: _33  and  _34
REMARK   15  A    between atoms: _37  and  _39
REMARK   16  A    between atoms: _39  and  _40
REMARK   17  A    between atoms: _39  and  _42
REMARK   18  A    between atoms: _42  and  _43
REMARK   19  A    between atoms: _46  and  _48
REMARK   20  A    between atoms: _48  and  _49
REMARK   21  A    between atoms: _48  and  _51
REMARK   22  A    between atoms: _51  and  _52
REMARK   23  A    between atoms: _55  and  _57
REMARK   24  A    between atoms: _57  and  _58
REMARK   25  A    between atoms: _57  and  _60
REMARK   26  A    between atoms: _60  and  _61
REMARK   27  A    between atoms: _64  and  _66
REMARK   28  A    between atoms: _66  and  _67
REMARK   29  A    between atoms: _66  and  _69
REMARK   30  A    between atoms: _69  and  _70
REMARK   31  A    between atoms: _73  and  _75
REMARK   32  A    between atoms: _75  and  _76
REMARK   33  A    between atoms: _78  and  _80
REMARK   34  A    between atoms: _80  and  _81
REMARK   35  A    between atoms: _84  and  _86
REMARK   36  A    between atoms: _86  and  _87
REMARK   37  A    between atoms: _86  and  _89
REMARK   38  A    between atoms: _89  and  _90
REMARK   39  A    between atoms: _93  and  _95
REMARK   40  A    between atoms: _95  and  _96
REMARK   41  A    between atoms: _95  and  _98
REMARK   42  A    between atoms: _98  and  _99
REMARK   43  A    between atoms: _102  and  _104
REMARK   44  A    between atoms: _104  and  _105
REMARK   45  A    between atoms: _104  and  _107
REMARK   46  A    between atoms: _107  and  _108
REMARK   47  A    between atoms: _111  and  _113
REMARK   48  A    between atoms: _113  and  _114
REMARK   49  A    between atoms: _113  and  _116
REMARK   50  A    between atoms: _119  and  _121
REMARK   51  A    between atoms: _121  and  _122
REMARK   52  A    between atoms: _121  and  _124
REMARK   53  A    between atoms: _124  and  _125
REMARK   54  A    between atoms: _125  and  _126
REMARK   55  A    between atoms: _126  and  _127
REMARK   56  A    between atoms: _127  and  _128
REMARK   57  A    between atoms: _132  and  _134
REMARK   58  A    between atoms: _134  and  _135
REMARK   59  A    between atoms: _134  and  _137
REMARK   60  A    between atoms: _137  and  _138
REMARK   61  A    between atoms: _138  and  _139
REMARK   62  A    between atoms: _141  and  _143
REMARK   63  A    between atoms: _143  and  _144
REMARK   64  A    between atoms: _143  and  _146
REMARK   65  A    between atoms: _146  and  _147
REMARK   66  A    between atoms: _150  and  _152
REMARK   67  A    between atoms: _152  and  _153
REMARK   68  A    between atoms: _155  and  _157
REMARK   69  A    between atoms: _157  and  _158
REMARK   70  A    between atoms: _160  and  _162
REMARK   71  A    between atoms: _162  and  _163
REMARK   72  A    between atoms: _162  and  _165
REMARK   73  A    between atoms: _165  and  _166
REMARK   74  A    between atoms: _169  and  _171
REMARK   75  A    between atoms: _171  and  _172
REMARK   76  A    between atoms: _174  and  _176
REMARK   77  A    between atoms: _176  and  _177
REMARK   78  A    between atoms: _179  and  _181
REMARK   79  A    between atoms: _181  and  _182
REMARK   80  A    between atoms: _181  and  _184
REMARK   81  A    between atoms: _184  and  _185
REMARK   82  A    between atoms: _191  and  _193
REMARK   83  A    between atoms: _193  and  _194
REMARK   84  A    between atoms: _193  and  _196
REMARK   85  A    between atoms: _196  and  _197
REMARK   86  A    between atoms: _200  and  _202
REMARK   87  A    between atoms: _202  and  _203
REMARK   88  A    between atoms: _202  and  _205
REMARK   89  A    between atoms: _208  and  _210
REMARK   90  A    between atoms: _210  and  _211
REMARK   91  A    between atoms: _210  and  _213
REMARK   92  A    between atoms: _213  and  _214
REMARK   93  A    between atoms: _218  and  _219
REMARK   94  A    between atoms: _224  and  _226
REMARK   95  A    between atoms: _226  and  _227
REMARK   96  A    between atoms: _226  and  _229
REMARK   97  A    between atoms: _229  and  _230
REMARK   98  A    between atoms: _234  and  _235
REMARK   99  A    between atoms: _240  and  _242
REMARK  100  A    between atoms: _242  and  _243
REMARK  101  A    between atoms: _242  and  _245
REMARK  102  A    between atoms: _248  and  _250
REMARK  103  A    between atoms: _250  and  _251
REMARK  104  A    between atoms: _250  and  _253
REMARK  105  A    between atoms: _253  and  _254
REMARK  106  A    between atoms: _259  and  _261
REMARK  107  A    between atoms: _261  and  _262
REMARK  108  A    between atoms: _261  and  _264
REMARK  109  A    between atoms: _267  and  _269
REMARK  110  A    between atoms: _269  and  _270
REMARK  111  A    between atoms: _269  and  _272
REMARK  112  A    between atoms: _272  and  _273
REMARK  113  A    between atoms: _276  and  _278
REMARK  114  A    between atoms: _278  and  _279
REMARK  115  A    between atoms: _281  and  _283
REMARK  116  A    between atoms: _283  and  _284
REMARK  117  A    between atoms: _283  and  _286
REMARK  118  A    between atoms: _287  and  _288
REMARK  119  A    between atoms: _288  and  _289
REMARK  120  A    between atoms: _298  and  _300
REMARK  121  A    between atoms: _300  and  _301
REMARK  122  A    between atoms: _300  and  _303
REMARK  123  A    between atoms: _303  and  _304
REMARK  124  A    between atoms: _309  and  _311
REMARK  125  A    between atoms: _311  and  _312
REMARK  126  A    between atoms: _311  and  _314
REMARK  127  A    between atoms: _314  and  _315
REMARK  128  A    between atoms: _315  and  _316
REMARK  129  A    between atoms: _316  and  _317
REMARK  130  A    between atoms: _326  and  _328
REMARK  131  A    between atoms: _328  and  _329
REMARK  132  A    between atoms: _328  and  _331
REMARK  133  A    between atoms: _331  and  _332
REMARK  134  A    between atoms: _335  and  _337
REMARK  135  A    between atoms: _337  and  _338
REMARK  136  A    between atoms: _337  and  _340
REMARK  137  A    between atoms: _340  and  _341
REMARK  138  A    between atoms: _344  and  _346
REMARK  139  A    between atoms: _346  and  _347
REMARK  140  A    between atoms: _346  and  _349
REMARK  141  A    between atoms: _349  and  _350
REMARK  142  A    between atoms: _353  and  _355
REMARK  143  A    between atoms: _355  and  _356
REMARK  144  A    between atoms: _355  and  _358
REMARK  145  A    between atoms: _358  and  _359
REMARK  146  A    between atoms: _362  and  _364
REMARK  147  A    between atoms: _364  and  _365
REMARK  148  A    between atoms: _367  and  _369
REMARK  149  A    between atoms: _369  and  _370
REMARK  150  A    between atoms: _373  and  _375
REMARK  151  A    between atoms: _375  and  _376
REMARK  152  A    between atoms: _375  and  _378
REMARK  153  A    between atoms: _378  and  _379
REMARK  154  A    between atoms: _382  and  _384
REMARK  155  A    between atoms: _384  and  _385
REMARK  156  A    between atoms: _384  and  _387
REMARK  157  A    between atoms: _387  and  _388
REMARK  158  A    between atoms: _391  and  _393
REMARK  159  A    between atoms: _393  and  _394
REMARK  160  A    between atoms: _393  and  _396
REMARK  161  A    between atoms: _396  and  _397
REMARK  162  A    between atoms: _400  and  _402
REMARK  163  A    between atoms: _402  and  _403
REMARK  164  A    between atoms: _402  and  _405
REMARK  165  A    between atoms: _408  and  _410
REMARK  166  A    between atoms: _410  and  _411
REMARK  167  A    between atoms: _410  and  _413
REMARK  168  A    between atoms: _413  and  _414
REMARK  169  A    between atoms: _414  and  _415
REMARK  170  A    between atoms: _415  and  _416
REMARK  171  A    between atoms: _416  and  _417
REMARK  172  A    between atoms: _421  and  _423
REMARK  173  A    between atoms: _423  and  _424
REMARK  174  A    between atoms: _423  and  _426
REMARK  175  A    between atoms: _426  and  _427
REMARK  176  A    between atoms: _427  and  _428
REMARK  177  A    between atoms: _430  and  _432
REMARK  178  A    between atoms: _432  and  _433
REMARK  179  A    between atoms: _432  and  _435
REMARK  180  A    between atoms: _435  and  _436
REMARK  181  A    between atoms: _439  and  _441
REMARK  182  A    between atoms: _441  and  _442
REMARK  183  A    between atoms: _444  and  _446
REMARK  184  A    between atoms: _446  and  _447
REMARK  185  A    between atoms: _449  and  _451
REMARK  186  A    between atoms: _451  and  _452
REMARK  187  A    between atoms: _451  and  _454
REMARK  188  A    between atoms: _454  and  _455
REMARK  189  A    between atoms: _458  and  _460
REMARK  190  A    between atoms: _460  and  _461
REMARK  191  A    between atoms: _463  and  _465
REMARK  192  A    between atoms: _465  and  _466
REMARK  193  A    between atoms: _468  and  _470
REMARK  194  A    between atoms: _470  and  _471
REMARK  195  A    between atoms: _470  and  _473
REMARK  196  A    between atoms: _473  and  _474
REMARK  197  A    between atoms: _480  and  _482
REMARK  198  A    between atoms: _482  and  _483
REMARK  199  A    between atoms: _482  and  _485
REMARK  200  A    between atoms: _485  and  _486
REMARK  201  A    between atoms: _489  and  _491
REMARK  202  A    between atoms: _491  and  _492
REMARK  203  A    between atoms: _491  and  _494
REMARK  204  A    between atoms: _497  and  _499
REMARK  205  A    between atoms: _499  and  _500
REMARK  206  A    between atoms: _499  and  _502
REMARK  207  A    between atoms: _502  and  _503
REMARK  208  A    between atoms: _507  and  _508
REMARK  209  A    between atoms: _513  and  _515
REMARK  210  A    between atoms: _515  and  _516
REMARK  211  A    between atoms: _515  and  _518
REMARK  212  A    between atoms: _518  and  _519
REMARK  213  A    between atoms: _523  and  _524
REMARK  214  A    between atoms: _529  and  _531
REMARK  215  A    between atoms: _531  and  _532
REMARK  216  A    between atoms: _531  and  _534
REMARK  217  A    between atoms: _537  and  _539
REMARK  218  A    between atoms: _539  and  _540
REMARK  219  A    between atoms: _539  and  _542
REMARK  220  A    between atoms: _542  and  _543
REMARK  221  A    between atoms: _548  and  _550
REMARK  222  A    between atoms: _550  and  _551
REMARK  223  A    between atoms: _550  and  _553
REMARK  224  A    between atoms: _556  and  _558
REMARK  225  A    between atoms: _558  and  _559
REMARK  226  A    between atoms: _558  and  _561
REMARK  227  A    between atoms: _561  and  _562
REMARK  228  A    between atoms: _565  and  _567
REMARK  229  A    between atoms: _567  and  _568
REMARK  230  A    between atoms: _570  and  _572
REMARK  231  A    between atoms: _572  and  _573
REMARK  232  A    between atoms: _572  and  _575
REMARK  233  A    between atoms: _575  and  _576
REMARK  234  A    between atoms: _576  and  _577
REMARK  235  A    between atoms: _577  and  _578
REMARK  236  A    between atoms: _587  and  _589
REMARK  237  A    between atoms: _589  and  _590
REMARK  238  A    between atoms: _589  and  _592
REMARK  239  A    between atoms: _592  and  _593
REMARK                            x       y       z     vdW  Elec       q    Type
REMARK                         _______ _______ _______ _____ _____    ______ ____
ROOT
ATOM      1  O   HOH     1      16.349  15.198   9.831  0.00  0.00    +0.000 OA
ENDROOT
TORSDOF 0
REMARK  Name = ../refined-set-2016/2aoc/2aoc_pocket.pdb
REMARK  239 active torsions:
REMARK  status: ('A' for Active; 'I' for Inactive)
REMARK    1  A    between atoms: _1  and  _3
REMARK    2  A    between atoms: _3  and  _4
REMARK    3  A    between atoms: _3  and  _6
REMARK    4  A    between atoms: _6  and  _7
REMARK    5  A    between atoms: _7  and  _8
REMARK    6  A    between atoms: _8  and  _9
REMARK    7  A    between atoms: _18  and  _20
REMARK    8  A    between atoms: _20  and  _21
REMARK    9  A    between atoms: _20  and  _23
REMARK   10  A    between atoms: _23  and  _24
REMARK   11  A    between atoms: _27  and  _29
REMARK   12  A    between atoms: _29  and  _30
REMARK   13  A    between atoms: _29  and  _32
REMARK   14  A    between atoms: _33  and  _34
REMARK   15  A    between atoms: _37  and  _39
REMARK   16  A    between atoms: _39  and  _40
REMARK   17  A    between atoms: _39  and  _42
REMARK   18  A    between atoms: _42  and  _43
REMARK   19  A    between atoms: _46  and  _48
REMARK   20  A    between atoms: _48  and  _49
REMARK   21  A    between atoms: _48  and  _51
REMARK   22  A    between atoms: _51  and  _52
REMARK   23  A    between atoms: _55  and  _57
REMARK   24  A    between atoms: _57  and  _58
REMARK   25  A    between atoms: _57  and  _60
REMARK   26  A    between atoms: _60  and  _61
REMARK   27  A    between atoms: _64  and  _66
REMARK   28  A    between atoms: _66  and  _67
REMARK   29  A    between atoms: _66  and  _69
REMARK   30  A    between atoms: _69  and  _70
REMARK   31  A    between atoms: _73  and  _75
REMARK   32  A    between atoms: _75  and  _76
REMARK   33  A    between atoms: _78  and  _80
REMARK   34  A    between atoms: _80  and  _81
REMARK   35  A    between atoms: _84  and  _86
REMARK   36  A    between atoms: _86  and  _87
REMARK   37  A    between atoms: _86  and  _89
REMARK   38  A    between atoms: _89  and  _90
REMARK   39  A    between atoms: _93  and  _95
REMARK   40  A    between atoms: _95  and  _96
REMARK   41  A    between atoms: _95  and  _98
REMARK   42  A    between atoms: _98  and  _99
REMARK   43  A    between atoms: _102  and  _104
REMARK   44  A    between atoms: _104  and  _105
REMARK   45  A    between atoms: _104  and  _107
REMARK   46  A    between atoms: _107  and  _108
REMARK   47  A    between atoms: _111  and  _113
REMARK   48  A    between atoms: _113  and  _114
REMARK   49  A    between atoms: _113  and  _116
REMARK   50  A    between atoms: _119  and  _121
REMARK   51  A    between atoms: _121  and  _122
REMARK   52  A    between atoms: _121  and  _124
REMARK   53  A    between atoms: _124  and  _125
REMARK   54  A    between atoms: _125  and  _126
REMARK   55  A    between atoms: _126  and  _127
REMARK   56  A    between atoms: _127  and  _128
REMARK   57  A    between atoms: _132  and  _134
REMARK   58  A    between atoms: _134  and  _135
REMARK   59  A    between atoms: _134  and  _137
REMARK   60  A    between atoms: _137  and  _138
REMARK   61  A    between atoms: _138  and  _139
REMARK   62  A    between atoms: _141  and  _143
REMARK   63  A    between atoms: _143  and  _144
REMARK   64  A    between atoms: _143  and  _146
REMARK   65  A    between atoms: _146  and  _147
REMARK   66  A    between atoms: _150  and  _152
REMARK   67  A    between atoms: _152  and  _153
REMARK   68  A    between atoms: _155  and  _157
REMARK   69  A    between atoms: _157  and  _158
REMARK   70  A    between atoms: _160  and  _162
REMARK   71  A    between atoms: _162  and  _163
REMARK   72  A    between atoms: _162  and  _165
REMARK   73  A    between atoms: _165  and  _166
REMARK   74  A    between atoms: _169  and  _171
REMARK   75  A    between atoms: _171  and  _172
REMARK   76  A    between atoms: _174  and  _176
REMARK   77  A    between atoms: _176  and  _177
REMARK   78  A    between atoms: _179  and  _181
REMARK   79  A    between atoms: _181  and  _182
REMARK   80  A    between atoms: _181  and  _184
REMARK   81  A    between atoms: _184  and  _185
REMARK   82  A    between atoms: _191  and  _193
REMARK   83  A    between atoms: _193  and  _194
REMARK   84  A    between atoms: _193  and  _196
REMARK   85  A    between atoms: _196  and  _197
REMARK   86  A    between atoms: _200  and  _202
REMARK   87  A    between atoms: _202  and  _203
REMARK   88  A    between atoms: _202  and  _205
REMARK   89  A    between atoms: _208  and  _210
REMARK   90  A    between atoms: _210  and  _211
REMARK   91  A    between atoms: _210  and  _213
REMARK   92  A    between atoms: _213  and  _214
REMARK   93  A    between atoms: _218  and  _219
REMARK   94  A    between atoms: _224  and  _226
REMARK   95  A    between atoms: _226  and  _227
REMARK   96  A    between atoms: _226  and  _229
REMARK   97  A    between atoms: _229  and  _230
REMARK   98  A    between atoms: _234  and  _235
REMARK   99  A    between atoms: _240  and  _242
REMARK  100  A    between atoms: _242  and  _243
REMARK  101  A    between atoms: _242  and  _245
REMARK  102  A    between atoms: _248  and  _250
REMARK  103  A    between atoms: _250  and  _251
REMARK  104  A    between atoms: _250  and  _253
REMARK  105  A    between atoms: _253  and  _254
REMARK  106  A    between atoms: _259  and  _261
REMARK  107  A    between atoms: _261  and  _262
REMARK  108  A    between atoms: _261  and  _264
REMARK  109  A    between atoms: _267  and  _269
REMARK  110  A    between atoms: _269  and  _270
REMARK  111  A    between atoms: _269  and  _272
REMARK  112  A    between atoms: _272  and  _273
REMARK  113  A    between atoms: _276  and  _278
REMARK  114  A    between atoms: _278  and  _279
REMARK  115  A    between atoms: _281  and  _283
REMARK  116  A    between atoms: _283  and  _284
REMARK  117  A    between atoms: _283  and  _286
REMARK  118  A    between atoms: _287  and  _288
REMARK  119  A    between atoms: _288  and  _289
REMARK  120  A    between atoms: _298  and  _300
REMARK  121  A    between atoms: _300  and  _301
REMARK  122  A    between atoms: _300  and  _303
REMARK  123  A    between atoms: _303  and  _304
REMARK  124  A    between atoms: _309  and  _311
REMARK  125  A    between atoms: _311  and  _312
REMARK  126  A    between atoms: _311  and  _314
REMARK  127  A    between atoms: _314  and  _315
REMARK  128  A    between atoms: _315  and  _316
REMARK  129  A    between atoms: _316  and  _317
REMARK  130  A    between atoms: _326  and  _328
REMARK  131  A    between atoms: _328  and  _329
REMARK  132  A    between atoms: _328  and  _331
REMARK  133  A    between atoms: _331  and  _332
REMARK  134  A    between atoms: _335  and  _337
REMARK  135  A    between atoms: _337  and  _338
REMARK  136  A    between atoms: _337  and  _340
REMARK  137  A    between atoms: _340  and  _341
REMARK  138  A    between atoms: _344  and  _346
REMARK  139  A    between atoms: _346  and  _347
REMARK  140  A    between atoms: _346  and  _349
REMARK  141  A    between atoms: _349  and  _350
REMARK  142  A    between atoms: _353  and  _355
REMARK  143  A    between atoms: _355  and  _356
REMARK  144  A    between atoms: _355  and  _358
REMARK  145  A    between atoms: _358  and  _359
REMARK  146  A    between atoms: _362  and  _364
REMARK  147  A    between atoms: _364  and  _365
REMARK  148  A    between atoms: _367  and  _369
REMARK  149  A    between atoms: _369  and  _370
REMARK  150  A    between atoms: _373  and  _375
REMARK  151  A    between atoms: _375  and  _376
REMARK  152  A    between atoms: _375  and  _378
REMARK  153  A    between atoms: _378  and  _379
REMARK  154  A    between atoms: _382  and  _384
REMARK  155  A    between atoms: _384  and  _385
REMARK  156  A    between atoms: _384  and  _387
REMARK  157  A    between atoms: _387  and  _388
REMARK  158  A    between atoms: _391  and  _393
REMARK  159  A    between atoms: _393  and  _394
REMARK  160  A    between atoms: _393  and  _396
REMARK  161  A    between atoms: _396  and  _397
REMARK  162  A    between atoms: _400  and  _402
REMARK  163  A    between atoms: _402  and  _403
REMARK  164  A    between atoms: _402  and  _405
REMARK  165  A    between atoms: _408  and  _410
REMARK  166  A    between atoms: _410  and  _411
REMARK  167  A    between atoms: _410  and  _413
REMARK  168  A    between atoms: _413  and  _414
REMARK  169  A    between atoms: _414  and  _415
REMARK  170  A    between atoms: _415  and  _416
REMARK  171  A    between atoms: _416  and  _417
REMARK  172  A    between atoms: _421  and  _423
REMARK  173  A    between atoms: _423  and  _424
REMARK  174  A    between atoms: _423  and  _426
REMARK  175  A    between atoms: _426  and  _427
REMARK  176  A    between atoms: _427  and  _428
REMARK  177  A    between atoms: _430  and  _432
REMARK  178  A    between atoms: _432  and  _433
REMARK  179  A    between atoms: _432  and  _435
REMARK  180  A    between atoms: _435  and  _436
REMARK  181  A    between atoms: _439  and  _441
REMARK  182  A    between atoms: _441  and  _442
REMARK  183  A    between atoms: _444  and  _446
REMARK  184  A    between atoms: _446  and  _447
REMARK  185  A    between atoms: _449  and  _451
REMARK  186  A    between atoms: _451  and  _452
REMARK  187  A    between atoms: _451  and  _454
REMARK  188  A    between atoms: _454  and  _455
REMARK  189  A    between atoms: _458  and  _460
REMARK  190  A    between atoms: _460  and  _461
REMARK  191  A    between atoms: _463  and  _465
REMARK  192  A    between atoms: _465  and  _466
REMARK  193  A    between atoms: _468  and  _470
REMARK  194  A    between atoms: _470  and  _471
REMARK  195  A    between atoms: _470  and  _473
REMARK  196  A    between atoms: _473  and  _474
REMARK  197  A    between atoms: _480  and  _482
REMARK  198  A    between atoms: _482  and  _483
REMARK  199  A    between atoms: _482  and  _485
REMARK  200  A    between atoms: _485  and  _486
REMARK  201  A    between atoms: _489  and  _491
REMARK  202  A    between atoms: _491  and  _492
REMARK  203  A    between atoms: _491  and  _494
REMARK  204  A    between atoms: _497  and  _499
REMARK  205  A    between atoms: _499  and  _500
REMARK  206  A    between atoms: _499  and  _502
REMARK  207  A    between atoms: _502  and  _503
REMARK  208  A    between atoms: _507  and  _508
REMARK  209  A    between atoms: _513  and  _515
REMARK  210  A    between atoms: _515  and  _516
REMARK  211  A    between atoms: _515  and  _518
REMARK  212  A    between atoms: _518  and  _519
REMARK  213  A    between atoms: _523  and  _524
REMARK  214  A    between atoms: _529  and  _531
REMARK  215  A    between atoms: _531  and  _532
REMARK  216  A    between atoms: _531  and  _534
REMARK  217  A    between atoms: _537  and  _539
REMARK  218  A    between atoms: _539  and  _540
REMARK  219  A    between atoms: _539  and  _542
REMARK  220  A    between atoms: _542  and  _543
REMARK  221  A    between atoms: _548  and  _550
REMARK  222  A    between atoms: _550  and  _551
REMARK  223  A    between atoms: _550  and  _553
REMARK  224  A    between atoms: _556  and  _558
REMARK  225  A    between atoms: _558  and  _559
REMARK  226  A    between atoms: _558  and  _561
REMARK  227  A    between atoms: _561  and  _562
REMARK  228  A    between atoms: _565  and  _567
REMARK  229  A    between atoms: _567  and  _568
REMARK  230  A    between atoms: _570  and  _572
REMARK  231  A    between atoms: _572  and  _573
REMARK  232  A    between atoms: _572  and  _575
REMARK  233  A    between atoms: _575  and  _576
REMARK  234  A    between atoms: _576  and  _577
REMARK  235  A    between atoms: _577  and  _578
REMARK  236  A    between atoms: _587  and  _589
REMARK  237  A    between atoms: _589  and  _590
REMARK  238  A    between atoms: _589  and  _592
REMARK  239  A    between atoms: _592  and  _593
REMARK                            x       y       z     vdW  Elec       q    Type
REMARK                         _______ _______ _______ _____ _____    ______ ____
ROOT
ATOM      1  O   HOH     1      26.502  21.859  23.741  0.00  0.00    +0.000 OA
ENDROOT
TORSDOF 0
REMARK  Name = ../refined-set-2016/2aoc/2aoc_pocket.pdb
REMARK  239 active torsions:
REMARK  status: ('A' for Active; 'I' for Inactive)
REMARK    1  A    between atoms: _1  and  _3
REMARK    2  A    between atoms: _3  and  _4
REMARK    3  A    between atoms: _3  and  _6
REMARK    4  A    between atoms: _6  and  _7
REMARK    5  A    between atoms: _7  and  _8
REMARK    6  A    between atoms: _8  and  _9
REMARK    7  A    between atoms: _18  and  _20
REMARK    8  A    between atoms: _20  and  _21
REMARK    9  A    between atoms: _20  and  _23
REMARK   10  A    between atoms: _23  and  _24
REMARK   11  A    between atoms: _27  and  _29
REMARK   12  A    between atoms: _29  and  _30
REMARK   13  A    between atoms: _29  and  _32
REMARK   14  A    between atoms: _33  and  _34
REMARK   15  A    between atoms: _37  and  _39
REMARK   16  A    between atoms: _39  and  _40
REMARK   17  A    between atoms: _39  and  _42
REMARK   18  A    between atoms: _42  and  _43
REMARK   19  A    between atoms: _46  and  _48
REMARK   20  A    between atoms: _48  and  _49
REMARK   21  A    between atoms: _48  and  _51
REMARK   22  A    between atoms: _51  and  _52
REMARK   23  A    between atoms: _55  and  _57
REMARK   24  A    between atoms: _57  and  _58
REMARK   25  A    between atoms: _57  and  _60
REMARK   26  A    between atoms: _60  and  _61
REMARK   27  A    between atoms: _64  and  _66
REMARK   28  A    between atoms: _66  and  _67
REMARK   29  A    between atoms: _66  and  _69
REMARK   30  A    between atoms: _69  and  _70
REMARK   31  A    between atoms: _73  and  _75
REMARK   32  A    between atoms: _75  and  _76
REMARK   33  A    between atoms: _78  and  _80
REMARK   34  A    between atoms: _80  and  _81
REMARK   35  A    between atoms: _84  and  _86
REMARK   36  A    between atoms: _86  and  _87
REMARK   37  A    between atoms: _86  and  _89
REMARK   38  A    between atoms: _89  and  _90
REMARK   39  A    between atoms: _93  and  _95
REMARK   40  A    between atoms: _95  and  _96
REMARK   41  A    between atoms: _95  and  _98
REMARK   42  A    between atoms: _98  and  _99
REMARK   43  A    between atoms: _102  and  _104
REMARK   44  A    between atoms: _104  and  _105
REMARK   45  A    between atoms: _104  and  _107
REMARK   46  A    between atoms: _107  and  _108
REMARK   47  A    between atoms: _111  and  _113
REMARK   48  A    between atoms: _113  and  _114
REMARK   49  A    between atoms: _113  and  _116
REMARK   50  A    between atoms: _119  and  _121
REMARK   51  A    between atoms: _121  and  _122
REMARK   52  A    between atoms: _121  and  _124
REMARK   53  A    between atoms: _124  and  _125
REMARK   54  A    between atoms: _125  and  _126
REMARK   55  A    between atoms: _126  and  _127
REMARK   56  A    between atoms: _127  and  _128
REMARK   57  A    between atoms: _132  and  _134
REMARK   58  A    between atoms: _134  and  _135
REMARK   59  A    between atoms: _134  and  _137
REMARK   60  A    between atoms: _137  and  _138
REMARK   61  A    between atoms: _138  and  _139
REMARK   62  A    between atoms: _141  and  _143
REMARK   63  A    between atoms: _143  and  _144
REMARK   64  A    between atoms: _143  and  _146
REMARK   65  A    between atoms: _146  and  _147
REMARK   66  A    between atoms: _150  and  _152
REMARK   67  A    between atoms: _152  and  _153
REMARK   68  A    between atoms: _155  and  _157
REMARK   69  A    between atoms: _157  and  _158
REMARK   70  A    between atoms: _160  and  _162
REMARK   71  A    between atoms: _162  and  _163
REMARK   72  A    between atoms: _162  and  _165
REMARK   73  A    between atoms: _165  and  _166
REMARK   74  A    between atoms: _169  and  _171
REMARK   75  A    between atoms: _171  and  _172
REMARK   76  A    between atoms: _174  and  _176
REMARK   77  A    between atoms: _176  and  _177
REMARK   78  A    between atoms: _179  and  _181
REMARK   79  A    between atoms: _181  and  _182
REMARK   80  A    between atoms: _181  and  _184
REMARK   81  A    between atoms: _184  and  _185
REMARK   82  A    between atoms: _191  and  _193
REMARK   83  A    between atoms: _193  and  _194
REMARK   84  A    between atoms: _193  and  _196
REMARK   85  A    between atoms: _196  and  _197
REMARK   86  A    between atoms: _200  and  _202
REMARK   87  A    between atoms: _202  and  _203
REMARK   88  A    between atoms: _202  and  _205
REMARK   89  A    between atoms: _208  and  _210
REMARK   90  A    between atoms: _210  and  _211
REMARK   91  A    between atoms: _210  and  _213
REMARK   92  A    between atoms: _213  and  _214
REMARK   93  A    between atoms: _218  and  _219
REMARK   94  A    between atoms: _224  and  _226
REMARK   95  A    between atoms: _226  and  _227
REMARK   96  A    between atoms: _226  and  _229
REMARK   97  A    between atoms: _229  and  _230
REMARK   98  A    between atoms: _234  and  _235
REMARK   99  A    between atoms: _240  and  _242
REMARK  100  A    between atoms: _242  and  _243
REMARK  101  A    between atoms: _242  and  _245
REMARK  102  A    between atoms: _248  and  _250
REMARK  103  A    between atoms: _250  and  _251
REMARK  104  A    between atoms: _250  and  _253
REMARK  105  A    between atoms: _253  and  _254
REMARK  106  A    between atoms: _259  and  _261
REMARK  107  A    between atoms: _261  and  _262
REMARK  108  A    between atoms: _261  and  _264
REMARK  109  A    between atoms: _267  and  _269
REMARK  110  A    between atoms: _269  and  _270
REMARK  111  A    between atoms: _269  and  _272
REMARK  112  A    between atoms: _272  and  _273
REMARK  113  A    between atoms: _276  and  _278
REMARK  114  A    between atoms: _278  and  _279
REMARK  115  A    between atoms: _281  and  _283
REMARK  116  A    between atoms: _283  and  _284
REMARK  117  A    between atoms: _283  and  _286
REMARK  118  A    between atoms: _287  and  _288
REMARK  119  A    between atoms: _288  and  _289
REMARK  120  A    between atoms: _298  and  _300
REMARK  121  A    between atoms: _300  and  _301
REMARK  122  A    between atoms: _300  and  _303
REMARK  123  A    between atoms: _303  and  _304
REMARK  124  A    between atoms: _309  and  _311
REMARK  125  A    between atoms: _311  and  _312
REMARK  126  A    between atoms: _311  and  _314
REMARK  127  A    between atoms: _314  and  _315
REMARK  128  A    between atoms: _315  and  _316
REMARK  129  A    between atoms: _316  and  _317
REMARK  130  A    between atoms: _326  and  _328
REMARK  131  A    between atoms: _328  and  _329
REMARK  132  A    between atoms: _328  and  _331
REMARK  133  A    between atoms: _331  and  _332
REMARK  134  A    between atoms: _335  and  _337
REMARK  135  A    between atoms: _337  and  _338
REMARK  136  A    between atoms: _337  and  _340
REMARK  137  A    between atoms: _340  and  _341
REMARK  138  A    between atoms: _344  and  _346
REMARK  139  A    between atoms: _346  and  _347
REMARK  140  A    between atoms: _346  and  _349
REMARK  141  A    between atoms: _349  and  _350
REMARK  142  A    between atoms: _353  and  _355
REMARK  143  A    between atoms: _355  and  _356
REMARK  144  A    between atoms: _355  and  _358
REMARK  145  A    between atoms: _358  and  _359
REMARK  146  A    between atoms: _362  and  _364
REMARK  147  A    between atoms: _364  and  _365
REMARK  148  A    between atoms: _367  and  _369
REMARK  149  A    between atoms: _369  and  _370
REMARK  150  A    between atoms: _373  and  _375
REMARK  151  A    between atoms: _375  and  _376
REMARK  152  A    between atoms: _375  and  _378
REMARK  153  A    between atoms: _378  and  _379
REMARK  154  A    between atoms: _382  and  _384
REMARK  155  A    between atoms: _384  and  _385
REMARK  156  A    between atoms: _384  and  _387
REMARK  157  A    between atoms: _387  and  _388
REMARK  158  A    between atoms: _391  and  _393
REMARK  159  A    between atoms: _393  and  _394
REMARK  160  A    between atoms: _393  and  _396
REMARK  161  A    between atoms: _396  and  _397
REMARK  162  A    between atoms: _400  and  _402
REMARK  163  A    between atoms: _402  and  _403
REMARK  164  A    between atoms: _402  and  _405
REMARK  165  A    between atoms: _408  and  _410
REMARK  166  A    between atoms: _410  and  _411
REMARK  167  A    between atoms: _410  and  _413
REMARK  168  A    between atoms: _413  and  _414
REMARK  169  A    between atoms: _414  and  _415
REMARK  170  A    between atoms: _415  and  _416
REMARK  171  A    between atoms: _416  and  _417
REMARK  172  A    between atoms: _421  and  _423
REMARK  173  A    between atoms: _423  and  _424
REMARK  174  A    between atoms: _423  and  _426
REMARK  175  A    between atoms: _426  and  _427
REMARK  176  A    between atoms: _427  and  _428
REMARK  177  A    between atoms: _430  and  _432
REMARK  178  A    between atoms: _432  and  _433
REMARK  179  A    between atoms: _432  and  _435
REMARK  180  A    between atoms: _435  and  _436
REMARK  181  A    between atoms: _439  and  _441
REMARK  182  A    between atoms: _441  and  _442
REMARK  183  A    between atoms: _444  and  _446
REMARK  184  A    between atoms: _446  and  _447
REMARK  185  A    between atoms: _449  and  _451
REMARK  186  A    between atoms: _451  and  _452
REMARK  187  A    between atoms: _451  and  _454
REMARK  188  A    between atoms: _454  and  _455
REMARK  189  A    between atoms: _458  and  _460
REMARK  190  A    between atoms: _460  and  _461
REMARK  191  A    between atoms: _463  and  _465
REMARK  192  A    between atoms: _465  and  _466
REMARK  193  A    between atoms: _468  and  _470
REMARK  194  A    between atoms: _470  and  _471
REMARK  195  A    between atoms: _470  and  _473
REMARK  196  A    between atoms: _473  and  _474
REMARK  197  A    between atoms: _480  and  _482
REMARK  198  A    between atoms: _482  and  _483
REMARK  199  A    between atoms: _482  and  _485
REMARK  200  A    between atoms: _485  and  _486
REMARK  201  A    between atoms: _489  and  _491
REMARK  202  A    between atoms: _491  and  _492
REMARK  203  A    between atoms: _491  and  _494
REMARK  204  A    between atoms: _497  and  _499
REMARK  205  A    between atoms: _499  and  _500
REMARK  206  A    between atoms: _499  and  _502
REMARK  207  A    between atoms: _502  and  _503
REMARK  208  A    between atoms: _507  and  _508
REMARK  209  A    between atoms: _513  and  _515
REMARK  210  A    between atoms: _515  and  _516
REMARK  211  A    between atoms: _515  and  _518
REMARK  212  A    between atoms: _518  and  _519
REMARK  213  A    between atoms: _523  and  _524
REMARK  214  A    between atoms: _529  and  _531
REMARK  215  A    between atoms: _531  and  _532
REMARK  216  A    between atoms: _531  and  _534
REMARK  217  A    between atoms: _537  and  _539
REMARK  218  A    between atoms: _539  and  _540
REMARK  219  A    between atoms: _539  and  _542
REMARK  220  A    between atoms: _542  and  _543
REMARK  221  A    between atoms: _548  and  _550
REMARK  222  A    between atoms: _550  and  _551
REMARK  223  A    between atoms: _550  and  _553
REMARK  224  A    between atoms: _556  and  _558
REMARK  225  A    between atoms: _558  and  _559
REMARK  226  A    between atoms: _558  and  _561
REMARK  227  A    between atoms: _561  and  _562
REMARK  228  A    between atoms: _565  and  _567
REMARK  229  A    between atoms: _567  and  _568
REMARK  230  A    between atoms: _570  and  _572
REMARK  231  A    between atoms: _572  and  _573
REMARK  232  A    between atoms: _572  and  _575
REMARK  233  A    between atoms: _575  and  _576
REMARK  234  A    between atoms: _576  and  _577
REMARK  235  A    between atoms: _577  and  _578
REMARK  236  A    between atoms: _587  and  _589
REMARK  237  A    between atoms: _589  and  _590
REMARK  238  A    between atoms: _589  and  _592
REMARK  239  A    between atoms: _592  and  _593
REMARK                            x       y       z     vdW  Elec       q    Type
REMARK                         _______ _______ _______ _____ _____    ______ ____
ROOT
ATOM      1  O   HOH     1       8.962  12.561  18.356  0.00  0.00    +0.000 OA
ENDROOT
TORSDOF 0
REMARK  Name = ../refined-set-2016/2aoc/2aoc_pocket.pdb
REMARK  239 active torsions:
REMARK  status: ('A' for Active; 'I' for Inactive)
REMARK    1  A    between atoms: _1  and  _3
REMARK    2  A    between atoms: _3  and  _4
REMARK    3  A    between atoms: _3  and  _6
REMARK    4  A    between atoms: _6  and  _7
REMARK    5  A    between atoms: _7  and  _8
REMARK    6  A    between atoms: _8  and  _9
REMARK    7  A    between atoms: _18  and  _20
REMARK    8  A    between atoms: _20  and  _21
REMARK    9  A    between atoms: _20  and  _23
REMARK   10  A    between atoms: _23  and  _24
REMARK   11  A    between atoms: _27  and  _29
REMARK   12  A    between atoms: _29  and  _30
REMARK   13  A    between atoms: _29  and  _32
REMARK   14  A    between atoms: _33  and  _34
REMARK   15  A    between atoms: _37  and  _39
REMARK   16  A    between atoms: _39  and  _40
REMARK   17  A    between atoms: _39  and  _42
REMARK   18  A    between atoms: _42  and  _43
REMARK   19  A    between atoms: _46  and  _48
REMARK   20  A    between atoms: _48  and  _49
REMARK   21  A    between atoms: _48  and  _51
REMARK   22  A    between atoms: _51  and  _52
REMARK   23  A    between atoms: _55  and  _57
REMARK   24  A    between atoms: _57  and  _58
REMARK   25  A    between atoms: _57  and  _60
REMARK   26  A    between atoms: _60  and  _61
REMARK   27  A    between atoms: _64  and  _66
REMARK   28  A    between atoms: _66  and  _67
REMARK   29  A    between atoms: _66  and  _69
REMARK   30  A    between atoms: _69  and  _70
REMARK   31  A    between atoms: _73  and  _75
REMARK   32  A    between atoms: _75  and  _76
REMARK   33  A    between atoms: _78  and  _80
REMARK   34  A    between atoms: _80  and  _81
REMARK   35  A    between atoms: _84  and  _86
REMARK   36  A    between atoms: _86  and  _87
REMARK   37  A    between atoms: _86  and  _89
REMARK   38  A    between atoms: _89  and  _90
REMARK   39  A    between atoms: _93  and  _95
REMARK   40  A    between atoms: _95  and  _96
REMARK   41  A    between atoms: _95  and  _98
REMARK   42  A    between atoms: _98  and  _99
REMARK   43  A    between atoms: _102  and  _104
REMARK   44  A    between atoms: _104  and  _105
REMARK   45  A    between atoms: _104  and  _107
REMARK   46  A    between atoms: _107  and  _108
REMARK   47  A    between atoms: _111  and  _113
REMARK   48  A    between atoms: _113  and  _114
REMARK   49  A    between atoms: _113  and  _116
REMARK   50  A    between atoms: _119  and  _121
REMARK   51  A    between atoms: _121  and  _122
REMARK   52  A    between atoms: _121  and  _124
REMARK   53  A    between atoms: _124  and  _125
REMARK   54  A    between atoms: _125  and  _126
REMARK   55  A    between atoms: _126  and  _127
REMARK   56  A    between atoms: _127  and  _128
REMARK   57  A    between atoms: _132  and  _134
REMARK   58  A    between atoms: _134  and  _135
REMARK   59  A    between atoms: _134  and  _137
REMARK   60  A    between atoms: _137  and  _138
REMARK   61  A    between atoms: _138  and  _139
REMARK   62  A    between atoms: _141  and  _143
REMARK   63  A    between atoms: _143  and  _144
REMARK   64  A    between atoms: _143  and  _146
REMARK   65  A    between atoms: _146  and  _147
REMARK   66  A    between atoms: _150  and  _152
REMARK   67  A    between atoms: _152  and  _153
REMARK   68  A    between atoms: _155  and  _157
REMARK   69  A    between atoms: _157  and  _158
REMARK   70  A    between atoms: _160  and  _162
REMARK   71  A    between atoms: _162  and  _163
REMARK   72  A    between atoms: _162  and  _165
REMARK   73  A    between atoms: _165  and  _166
REMARK   74  A    between atoms: _169  and  _171
REMARK   75  A    between atoms: _171  and  _172
REMARK   76  A    between atoms: _174  and  _176
REMARK   77  A    between atoms: _176  and  _177
REMARK   78  A    between atoms: _179  and  _181
REMARK   79  A    between atoms: _181  and  _182
REMARK   80  A    between atoms: _181  and  _184
REMARK   81  A    between atoms: _184  and  _185
REMARK   82  A    between atoms: _191  and  _193
REMARK   83  A    between atoms: _193  and  _194
REMARK   84  A    between atoms: _193  and  _196
REMARK   85  A    between atoms: _196  and  _197
REMARK   86  A    between atoms: _200  and  _202
REMARK   87  A    between atoms: _202  and  _203
REMARK   88  A    between atoms: _202  and  _205
REMARK   89  A    between atoms: _208  and  _210
REMARK   90  A    between atoms: _210  and  _211
REMARK   91  A    between atoms: _210  and  _213
REMARK   92  A    between atoms: _213  and  _214
REMARK   93  A    between atoms: _218  and  _219
REMARK   94  A    between atoms: _224  and  _226
REMARK   95  A    between atoms: _226  and  _227
REMARK   96  A    between atoms: _226  and  _229
REMARK   97  A    between atoms: _229  and  _230
REMARK   98  A    between atoms: _234  and  _235
REMARK   99  A    between atoms: _240  and  _242
REMARK  100  A    between atoms: _242  and  _243
REMARK  101  A    between atoms: _242  and  _245
REMARK  102  A    between atoms: _248  and  _250
REMARK  103  A    between atoms: _250  and  _251
REMARK  104  A    between atoms: _250  and  _253
REMARK  105  A    between atoms: _253  and  _254
REMARK  106  A    between atoms: _259  and  _261
REMARK  107  A    between atoms: _261  and  _262
REMARK  108  A    between atoms: _261  and  _264
REMARK  109  A    between atoms: _267  and  _269
REMARK  110  A    between atoms: _269  and  _270
REMARK  111  A    between atoms: _269  and  _272
REMARK  112  A    between atoms: _272  and  _273
REMARK  113  A    between atoms: _276  and  _278
REMARK  114  A    between atoms: _278  and  _279
REMARK  115  A    between atoms: _281  and  _283
REMARK  116  A    between atoms: _283  and  _284
REMARK  117  A    between atoms: _283  and  _286
REMARK  118  A    between atoms: _287  and  _288
REMARK  119  A    between atoms: _288  and  _289
REMARK  120  A    between atoms: _298  and  _300
REMARK  121  A    between atoms: _300  and  _301
REMARK  122  A    between atoms: _300  and  _303
REMARK  123  A    between atoms: _303  and  _304
REMARK  124  A    between atoms: _309  and  _311
REMARK  125  A    between atoms: _311  and  _312
REMARK  126  A    between atoms: _311  and  _314
REMARK  127  A    between atoms: _314  and  _315
REMARK  128  A    between atoms: _315  and  _316
REMARK  129  A    between atoms: _316  and  _317
REMARK  130  A    between atoms: _326  and  _328
REMARK  131  A    between atoms: _328  and  _329
REMARK  132  A    between atoms: _328  and  _331
REMARK  133  A    between atoms: _331  and  _332
REMARK  134  A    between atoms: _335  and  _337
REMARK  135  A    between atoms: _337  and  _338
REMARK  136  A    between atoms: _337  and  _340
REMARK  137  A    between atoms: _340  and  _341
REMARK  138  A    between atoms: _344  and  _346
REMARK  139  A    between atoms: _346  and  _347
REMARK  140  A    between atoms: _346  and  _349
REMARK  141  A    between atoms: _349  and  _350
REMARK  142  A    between atoms: _353  and  _355
REMARK  143  A    between atoms: _355  and  _356
REMARK  144  A    between atoms: _355  and  _358
REMARK  145  A    between atoms: _358  and  _359
REMARK  146  A    between atoms: _362  and  _364
REMARK  147  A    between atoms: _364  and  _365
REMARK  148  A    between atoms: _367  and  _369
REMARK  149  A    between atoms: _369  and  _370
REMARK  150  A    between atoms: _373  and  _375
REMARK  151  A    between atoms: _375  and  _376
REMARK  152  A    between atoms: _375  and  _378
REMARK  153  A    between atoms: _378  and  _379
REMARK  154  A    between atoms: _382  and  _384
REMARK  155  A    between atoms: _384  and  _385
REMARK  156  A    between atoms: _384  and  _387
REMARK  157  A    between atoms: _387  and  _388
REMARK  158  A    between atoms: _391  and  _393
REMARK  159  A    between atoms: _393  and  _394
REMARK  160  A    between atoms: _393  and  _396
REMARK  161  A    between atoms: _396  and  _397
REMARK  162  A    between atoms: _400  and  _402
REMARK  163  A    between atoms: _402  and  _403
REMARK  164  A    between atoms: _402  and  _405
REMARK  165  A    between atoms: _408  and  _410
REMARK  166  A    between atoms: _410  and  _411
REMARK  167  A    between atoms: _410  and  _413
REMARK  168  A    between atoms: _413  and  _414
REMARK  169  A    between atoms: _414  and  _415
REMARK  170  A    between atoms: _415  and  _416
REMARK  171  A    between atoms: _416  and  _417
REMARK  172  A    between atoms: _421  and  _423
REMARK  173  A    between atoms: _423  and  _424
REMARK  174  A    between atoms: _423  and  _426
REMARK  175  A    between atoms: _426  and  _427
REMARK  176  A    between atoms: _427  and  _428
REMARK  177  A    between atoms: _430  and  _432
REMARK  178  A    between atoms: _432  and  _433
REMARK  179  A    between atoms: _432  and  _435
REMARK  180  A    between atoms: _435  and  _436
REMARK  181  A    between atoms: _439  and  _441
REMARK  182  A    between atoms: _441  and  _442
REMARK  183  A    between atoms: _444  and  _446
REMARK  184  A    between atoms: _446  and  _447
REMARK  185  A    between atoms: _449  and  _451
REMARK  186  A    between atoms: _451  and  _452
REMARK  187  A    between atoms: _451  and  _454
REMARK  188  A    between atoms: _454  and  _455
REMARK  189  A    between atoms: _458  and  _460
REMARK  190  A    between atoms: _460  and  _461
REMARK  191  A    between atoms: _463  and  _465
REMARK  192  A    between atoms: _465  and  _466
REMARK  193  A    between atoms: _468  and  _470
REMARK  194  A    between atoms: _470  and  _471
REMARK  195  A    between atoms: _470  and  _473
REMARK  196  A    between atoms: _473  and  _474
REMARK  197  A    between atoms: _480  and  _482
REMARK  198  A    between atoms: _482  and  _483
REMARK  199  A    between atoms: _482  and  _485
REMARK  200  A    between atoms: _485  and  _486
REMARK  201  A    between atoms: _489  and  _491
REMARK  202  A    between atoms: _491  and  _492
REMARK  203  A    between atoms: _491  and  _494
REMARK  204  A    between atoms: _497  and  _499
REMARK  205  A    between atoms: _499  and  _500
REMARK  206  A    between atoms: _499  and  _502
REMARK  207  A    between atoms: _502  and  _503
REMARK  208  A    between atoms: _507  and  _508
REMARK  209  A    between atoms: _513  and  _515
REMARK  210  A    between atoms: _515  and  _516
REMARK  211  A    between atoms: _515  and  _518
REMARK  212  A    between atoms: _518  and  _519
REMARK  213  A    between atoms: _523  and  _524
REMARK  214  A    between atoms: _529  and  _531
REMARK  215  A    between atoms: _531  and  _532
REMARK  216  A    between atoms: _531  and  _534
REMARK  217  A    between atoms: _537  and  _539
REMARK  218  A    between atoms: _539  and  _540
REMARK  219  A    between atoms: _539  and  _542
REMARK  220  A    between atoms: _542  and  _543
REMARK  221  A    between atoms: _548  and  _550
REMARK  222  A    between atoms: _550  and  _551
REMARK  223  A    between atoms: _550  and  _553
REMARK  224  A    between atoms: _556  and  _558
REMARK  225  A    between atoms: _558  and  _559
REMARK  226  A    between atoms: _558  and  _561
REMARK  227  A    between atoms: _561  and  _562
REMARK  228  A    between atoms: _565  and  _567
REMARK  229  A    between atoms: _567  and  _568
REMARK  230  A    between atoms: _570  and  _572
REMARK  231  A    between atoms: _572  and  _573
REMARK  232  A    between atoms: _572  and  _575
REMARK  233  A    between atoms: _575  and  _576
REMARK  234  A    between atoms: _576  and  _577
REMARK  235  A    between atoms: _577  and  _578
REMARK  236  A    between atoms: _587  and  _589
REMARK  237  A    between atoms: _589  and  _590
REMARK  238  A    between atoms: _589  and  _592
REMARK  239  A    between atoms: _592  and  _593
REMARK                            x       y       z     vdW  Elec       q    Type
REMARK                         _______ _______ _______ _____ _____    ______ ____
ROOT
ATOM      1  O   HOH     1      24.718  28.847  15.174  0.00  0.00    +0.000 OA
ENDROOT
TORSDOF 0
REMARK  Name = ../refined-set-2016/2aoc/2aoc_pocket.pdb
REMARK  239 active torsions:
REMARK  status: ('A' for Active; 'I' for Inactive)
REMARK    1  A    between atoms: _1  and  _3
REMARK    2  A    between atoms: _3  and  _4
REMARK    3  A    between atoms: _3  and  _6
REMARK    4  A    between atoms: _6  and  _7
REMARK    5  A    between atoms: _7  and  _8
REMARK    6  A    between atoms: _8  and  _9
REMARK    7  A    between atoms: _18  and  _20
REMARK    8  A    between atoms: _20  and  _21
REMARK    9  A    between atoms: _20  and  _23
REMARK   10  A    between atoms: _23  and  _24
REMARK   11  A    between atoms: _27  and  _29
REMARK   12  A    between atoms: _29  and  _30
REMARK   13  A    between atoms: _29  and  _32
REMARK   14  A    between atoms: _33  and  _34
REMARK   15  A    between atoms: _37  and  _39
REMARK   16  A    between atoms: _39  and  _40
REMARK   17  A    between atoms: _39  and  _42
REMARK   18  A    between atoms: _42  and  _43
REMARK   19  A    between atoms: _46  and  _48
REMARK   20  A    between atoms: _48  and  _49
REMARK   21  A    between atoms: _48  and  _51
REMARK   22  A    between atoms: _51  and  _52
REMARK   23  A    between atoms: _55  and  _57
REMARK   24  A    between atoms: _57  and  _58
REMARK   25  A    between atoms: _57  and  _60
REMARK   26  A    between atoms: _60  and  _61
REMARK   27  A    between atoms: _64  and  _66
REMARK   28  A    between atoms: _66  and  _67
REMARK   29  A    between atoms: _66  and  _69
REMARK   30  A    between atoms: _69  and  _70
REMARK   31  A    between atoms: _73  and  _75
REMARK   32  A    between atoms: _75  and  _76
REMARK   33  A    between atoms: _78  and  _80
REMARK   34  A    between atoms: _80  and  _81
REMARK   35  A    between atoms: _84  and  _86
REMARK   36  A    between atoms: _86  and  _87
REMARK   37  A    between atoms: _86  and  _89
REMARK   38  A    between atoms: _89  and  _90
REMARK   39  A    between atoms: _93  and  _95
REMARK   40  A    between atoms: _95  and  _96
REMARK   41  A    between atoms: _95  and  _98
REMARK   42  A    between atoms: _98  and  _99
REMARK   43  A    between atoms: _102  and  _104
REMARK   44  A    between atoms: _104  and  _105
REMARK   45  A    between atoms: _104  and  _107
REMARK   46  A    between atoms: _107  and  _108
REMARK   47  A    between atoms: _111  and  _113
REMARK   48  A    between atoms: _113  and  _114
REMARK   49  A    between atoms: _113  and  _116
REMARK   50  A    between atoms: _119  and  _121
REMARK   51  A    between atoms: _121  and  _122
REMARK   52  A    between atoms: _121  and  _124
REMARK   53  A    between atoms: _124  and  _125
REMARK   54  A    between atoms: _125  and  _126
REMARK   55  A    between atoms: _126  and  _127
REMARK   56  A    between atoms: _127  and  _128
REMARK   57  A    between atoms: _132  and  _134
REMARK   58  A    between atoms: _134  and  _135
REMARK   59  A    between atoms: _134  and  _137
REMARK   60  A    between atoms: _137  and  _138
REMARK   61  A    between atoms: _138  and  _139
REMARK   62  A    between atoms: _141  and  _143
REMARK   63  A    between atoms: _143  and  _144
REMARK   64  A    between atoms: _143  and  _146
REMARK   65  A    between atoms: _146  and  _147
REMARK   66  A    between atoms: _150  and  _152
REMARK   67  A    between atoms: _152  and  _153
REMARK   68  A    between atoms: _155  and  _157
REMARK   69  A    between atoms: _157  and  _158
REMARK   70  A    between atoms: _160  and  _162
REMARK   71  A    between atoms: _162  and  _163
REMARK   72  A    between atoms: _162  and  _165
REMARK   73  A    between atoms: _165  and  _166
REMARK   74  A    between atoms: _169  and  _171
REMARK   75  A    between atoms: _171  and  _172
REMARK   76  A    between atoms: _174  and  _176
REMARK   77  A    between atoms: _176  and  _177
REMARK   78  A    between atoms: _179  and  _181
REMARK   79  A    between atoms: _181  and  _182
REMARK   80  A    between atoms: _181  and  _184
REMARK   81  A    between atoms: _184  and  _185
REMARK   82  A    between atoms: _191  and  _193
REMARK   83  A    between atoms: _193  and  _194
REMARK   84  A    between atoms: _193  and  _196
REMARK   85  A    between atoms: _196  and  _197
REMARK   86  A    between atoms: _200  and  _202
REMARK   87  A    between atoms: _202  and  _203
REMARK   88  A    between atoms: _202  and  _205
REMARK   89  A    between atoms: _208  and  _210
REMARK   90  A    between atoms: _210  and  _211
REMARK   91  A    between atoms: _210  and  _213
REMARK   92  A    between atoms: _213  and  _214
REMARK   93  A    between atoms: _218  and  _219
REMARK   94  A    between atoms: _224  and  _226
REMARK   95  A    between atoms: _226  and  _227
REMARK   96  A    between atoms: _226  and  _229
REMARK   97  A    between atoms: _229  and  _230
REMARK   98  A    between atoms: _234  and  _235
REMARK   99  A    between atoms: _240  and  _242
REMARK  100  A    between atoms: _242  and  _243
REMARK  101  A    between atoms: _242  and  _245
REMARK  102  A    between atoms: _248  and  _250
REMARK  103  A    between atoms: _250  and  _251
REMARK  104  A    between atoms: _250  and  _253
REMARK  105  A    between atoms: _253  and  _254
REMARK  106  A    between atoms: _259  and  _261
REMARK  107  A    between atoms: _261  and  _262
REMARK  108  A    between atoms: _261  and  _264
REMARK  109  A    between atoms: _267  and  _269
REMARK  110  A    between atoms: _269  and  _270
REMARK  111  A    between atoms: _269  and  _272
REMARK  112  A    between atoms: _272  and  _273
REMARK  113  A    between atoms: _276  and  _278
REMARK  114  A    between atoms: _278  and  _279
REMARK  115  A    between atoms: _281  and  _283
REMARK  116  A    between atoms: _283  and  _284
REMARK  117  A    between atoms: _283  and  _286
REMARK  118  A    between atoms: _287  and  _288
REMARK  119  A    between atoms: _288  and  _289
REMARK  120  A    between atoms: _298  and  _300
REMARK  121  A    between atoms: _300  and  _301
REMARK  122  A    between atoms: _300  and  _303
REMARK  123  A    between atoms: _303  and  _304
REMARK  124  A    between atoms: _309  and  _311
REMARK  125  A    between atoms: _311  and  _312
REMARK  126  A    between atoms: _311  and  _314
REMARK  127  A    between atoms: _314  and  _315
REMARK  128  A    between atoms: _315  and  _316
REMARK  129  A    between atoms: _316  and  _317
REMARK  130  A    between atoms: _326  and  _328
REMARK  131  A    between atoms: _328  and  _329
REMARK  132  A    between atoms: _328  and  _331
REMARK  133  A    between atoms: _331  and  _332
REMARK  134  A    between atoms: _335  and  _337
REMARK  135  A    between atoms: _337  and  _338
REMARK  136  A    between atoms: _337  and  _340
REMARK  137  A    between atoms: _340  and  _341
REMARK  138  A    between atoms: _344  and  _346
REMARK  139  A    between atoms: _346  and  _347
REMARK  140  A    between atoms: _346  and  _349
REMARK  141  A    between atoms: _349  and  _350
REMARK  142  A    between atoms: _353  and  _355
REMARK  143  A    between atoms: _355  and  _356
REMARK  144  A    between atoms: _355  and  _358
REMARK  145  A    between atoms: _358  and  _359
REMARK  146  A    between atoms: _362  and  _364
REMARK  147  A    between atoms: _364  and  _365
REMARK  148  A    between atoms: _367  and  _369
REMARK  149  A    between atoms: _369  and  _370
REMARK  150  A    between atoms: _373  and  _375
REMARK  151  A    between atoms: _375  and  _376
REMARK  152  A    between atoms: _375  and  _378
REMARK  153  A    between atoms: _378  and  _379
REMARK  154  A    between atoms: _382  and  _384
REMARK  155  A    between atoms: _384  and  _385
REMARK  156  A    between atoms: _384  and  _387
REMARK  157  A    between atoms: _387  and  _388
REMARK  158  A    between atoms: _391  and  _393
REMARK  159  A    between atoms: _393  and  _394
REMARK  160  A    between atoms: _393  and  _396
REMARK  161  A    between atoms: _396  and  _397
REMARK  162  A    between atoms: _400  and  _402
REMARK  163  A    between atoms: _402  and  _403
REMARK  164  A    between atoms: _402  and  _405
REMARK  165  A    between atoms: _408  and  _410
REMARK  166  A    between atoms: _410  and  _411
REMARK  167  A    between atoms: _410  and  _413
REMARK  168  A    between atoms: _413  and  _414
REMARK  169  A    between atoms: _414  and  _415
REMARK  170  A    between atoms: _415  and  _416
REMARK  171  A    between atoms: _416  and  _417
REMARK  172  A    between atoms: _421  and  _423
REMARK  173  A    between atoms: _423  and  _424
REMARK  174  A    between atoms: _423  and  _426
REMARK  175  A    between atoms: _426  and  _427
REMARK  176  A    between atoms: _427  and  _428
REMARK  177  A    between atoms: _430  and  _432
REMARK  178  A    between atoms: _432  and  _433
REMARK  179  A    between atoms: _432  and  _435
REMARK  180  A    between atoms: _435  and  _436
REMARK  181  A    between atoms: _439  and  _441
REMARK  182  A    between atoms: _441  and  _442
REMARK  183  A    between atoms: _444  and  _446
REMARK  184  A    between atoms: _446  and  _447
REMARK  185  A    between atoms: _449  and  _451
REMARK  186  A    between atoms: _451  and  _452
REMARK  187  A    between atoms: _451  and  _454
REMARK  188  A    between atoms: _454  and  _455
REMARK  189  A    between atoms: _458  and  _460
REMARK  190  A    between atoms: _460  and  _461
REMARK  191  A    between atoms: _463  and  _465
REMARK  192  A    between atoms: _465  and  _466
REMARK  193  A    between atoms: _468  and  _470
REMARK  194  A    between atoms: _470  and  _471
REMARK  195  A    between atoms: _470  and  _473
REMARK  196  A    between atoms: _473  and  _474
REMARK  197  A    between atoms: _480  and  _482
REMARK  198  A    between atoms: _482  and  _483
REMARK  199  A    between atoms: _482  and  _485
REMARK  200  A    between atoms: _485  and  _486
REMARK  201  A    between atoms: _489  and  _491
REMARK  202  A    between atoms: _491  and  _492
REMARK  203  A    between atoms: _491  and  _494
REMARK  204  A    between atoms: _497  and  _499
REMARK  205  A    between atoms: _499  and  _500
REMARK  206  A    between atoms: _499  and  _502
REMARK  207  A    between atoms: _502  and  _503
REMARK  208  A    between atoms: _507  and  _508
REMARK  209  A    between atoms: _513  and  _515
REMARK  210  A    between atoms: _515  and  _516
REMARK  211  A    between atoms: _515  and  _518
REMARK  212  A    between atoms: _518  and  _519
REMARK  213  A    between atoms: _523  and  _524
REMARK  214  A    between atoms: _529  and  _531
REMARK  215  A    between atoms: _531  and  _532
REMARK  216  A    between atoms: _531  and  _534
REMARK  217  A    between atoms: _537  and  _539
REMARK  218  A    between atoms: _539  and  _540
REMARK  219  A    between atoms: _539  and  _542
REMARK  220  A    between atoms: _542  and  _543
REMARK  221  A    between atoms: _548  and  _550
REMARK  222  A    between atoms: _550  and  _551
REMARK  223  A    between atoms: _550  and  _553
REMARK  224  A    between atoms: _556  and  _558
REMARK  225  A    between atoms: _558  and  _559
REMARK  226  A    between atoms: _558  and  _561
REMARK  227  A    between atoms: _561  and  _562
REMARK  228  A    between atoms: _565  and  _567
REMARK  229  A    between atoms: _567  and  _568
REMARK  230  A    between atoms: _570  and  _572
REMARK  231  A    between atoms: _572  and  _573
REMARK  232  A    between atoms: _572  and  _575
REMARK  233  A    between atoms: _575  and  _576
REMARK  234  A    between atoms: _576  and  _577
REMARK  235  A    between atoms: _577  and  _578
REMARK  236  A    between atoms: _587  and  _589
REMARK  237  A    between atoms: _589  and  _590
REMARK  238  A    between atoms: _589  and  _592
REMARK  239  A    between atoms: _592  and  _593
REMARK                            x       y       z     vdW  Elec       q    Type
REMARK                         _______ _______ _______ _____ _____    ______ ____
ROOT
ATOM      1  O   HOH     1      19.095  16.814   9.213  0.00  0.00    +0.000 OA
ENDROOT
TORSDOF 0
REMARK  Name = ../refined-set-2016/2aoc/2aoc_pocket.pdb
REMARK  239 active torsions:
REMARK  status: ('A' for Active; 'I' for Inactive)
REMARK    1  A    between atoms: _1  and  _3
REMARK    2  A    between atoms: _3  and  _4
REMARK    3  A    between atoms: _3  and  _6
REMARK    4  A    between atoms: _6  and  _7
REMARK    5  A    between atoms: _7  and  _8
REMARK    6  A    between atoms: _8  and  _9
REMARK    7  A    between atoms: _18  and  _20
REMARK    8  A    between atoms: _20  and  _21
REMARK    9  A    between atoms: _20  and  _23
REMARK   10  A    between atoms: _23  and  _24
REMARK   11  A    between atoms: _27  and  _29
REMARK   12  A    between atoms: _29  and  _30
REMARK   13  A    between atoms: _29  and  _32
REMARK   14  A    between atoms: _33  and  _34
REMARK   15  A    between atoms: _37  and  _39
REMARK   16  A    between atoms: _39  and  _40
REMARK   17  A    between atoms: _39  and  _42
REMARK   18  A    between atoms: _42  and  _43
REMARK   19  A    between atoms: _46  and  _48
REMARK   20  A    between atoms: _48  and  _49
REMARK   21  A    between atoms: _48  and  _51
REMARK   22  A    between atoms: _51  and  _52
REMARK   23  A    between atoms: _55  and  _57
REMARK   24  A    between atoms: _57  and  _58
REMARK   25  A    between atoms: _57  and  _60
REMARK   26  A    between atoms: _60  and  _61
REMARK   27  A    between atoms: _64  and  _66
REMARK   28  A    between atoms: _66  and  _67
REMARK   29  A    between atoms: _66  and  _69
REMARK   30  A    between atoms: _69  and  _70
REMARK   31  A    between atoms: _73  and  _75
REMARK   32  A    between atoms: _75  and  _76
REMARK   33  A    between atoms: _78  and  _80
REMARK   34  A    between atoms: _80  and  _81
REMARK   35  A    between atoms: _84  and  _86
REMARK   36  A    between atoms: _86  and  _87
REMARK   37  A    between atoms: _86  and  _89
REMARK   38  A    between atoms: _89  and  _90
REMARK   39  A    between atoms: _93  and  _95
REMARK   40  A    between atoms: _95  and  _96
REMARK   41  A    between atoms: _95  and  _98
REMARK   42  A    between atoms: _98  and  _99
REMARK   43  A    between atoms: _102  and  _104
REMARK   44  A    between atoms: _104  and  _105
REMARK   45  A    between atoms: _104  and  _107
REMARK   46  A    between atoms: _107  and  _108
REMARK   47  A    between atoms: _111  and  _113
REMARK   48  A    between atoms: _113  and  _114
REMARK   49  A    between atoms: _113  and  _116
REMARK   50  A    between atoms: _119  and  _121
REMARK   51  A    between atoms: _121  and  _122
REMARK   52  A    between atoms: _121  and  _124
REMARK   53  A    between atoms: _124  and  _125
REMARK   54  A    between atoms: _125  and  _126
REMARK   55  A    between atoms: _126  and  _127
REMARK   56  A    between atoms: _127  and  _128
REMARK   57  A    between atoms: _132  and  _134
REMARK   58  A    between atoms: _134  and  _135
REMARK   59  A    between atoms: _134  and  _137
REMARK   60  A    between atoms: _137  and  _138
REMARK   61  A    between atoms: _138  and  _139
REMARK   62  A    between atoms: _141  and  _143
REMARK   63  A    between atoms: _143  and  _144
REMARK   64  A    between atoms: _143  and  _146
REMARK   65  A    between atoms: _146  and  _147
REMARK   66  A    between atoms: _150  and  _152
REMARK   67  A    between atoms: _152  and  _153
REMARK   68  A    between atoms: _155  and  _157
REMARK   69  A    between atoms: _157  and  _158
REMARK   70  A    between atoms: _160  and  _162
REMARK   71  A    between atoms: _162  and  _163
REMARK   72  A    between atoms: _162  and  _165
REMARK   73  A    between atoms: _165  and  _166
REMARK   74  A    between atoms: _169  and  _171
REMARK   75  A    between atoms: _171  and  _172
REMARK   76  A    between atoms: _174  and  _176
REMARK   77  A    between atoms: _176  and  _177
REMARK   78  A    between atoms: _179  and  _181
REMARK   79  A    between atoms: _181  and  _182
REMARK   80  A    between atoms: _181  and  _184
REMARK   81  A    between atoms: _184  and  _185
REMARK   82  A    between atoms: _191  and  _193
REMARK   83  A    between atoms: _193  and  _194
REMARK   84  A    between atoms: _193  and  _196
REMARK   85  A    between atoms: _196  and  _197
REMARK   86  A    between atoms: _200  and  _202
REMARK   87  A    between atoms: _202  and  _203
REMARK   88  A    between atoms: _202  and  _205
REMARK   89  A    between atoms: _208  and  _210
REMARK   90  A    between atoms: _210  and  _211
REMARK   91  A    between atoms: _210  and  _213
REMARK   92  A    between atoms: _213  and  _214
REMARK   93  A    between atoms: _218  and  _219
REMARK   94  A    between atoms: _224  and  _226
REMARK   95  A    between atoms: _226  and  _227
REMARK   96  A    between atoms: _226  and  _229
REMARK   97  A    between atoms: _229  and  _230
REMARK   98  A    between atoms: _234  and  _235
REMARK   99  A    between atoms: _240  and  _242
REMARK  100  A    between atoms: _242  and  _243
REMARK  101  A    between atoms: _242  and  _245
REMARK  102  A    between atoms: _248  and  _250
REMARK  103  A    between atoms: _250  and  _251
REMARK  104  A    between atoms: _250  and  _253
REMARK  105  A    between atoms: _253  and  _254
REMARK  106  A    between atoms: _259  and  _261
REMARK  107  A    between atoms: _261  and  _262
REMARK  108  A    between atoms: _261  and  _264
REMARK  109  A    between atoms: _267  and  _269
REMARK  110  A    between atoms: _269  and  _270
REMARK  111  A    between atoms: _269  and  _272
REMARK  112  A    between atoms: _272  and  _273
REMARK  113  A    between atoms: _276  and  _278
REMARK  114  A    between atoms: _278  and  _279
REMARK  115  A    between atoms: _281  and  _283
REMARK  116  A    between atoms: _283  and  _284
REMARK  117  A    between atoms: _283  and  _286
REMARK  118  A    between atoms: _287  and  _288
REMARK  119  A    between atoms: _288  and  _289
REMARK  120  A    between atoms: _298  and  _300
REMARK  121  A    between atoms: _300  and  _301
REMARK  122  A    between atoms: _300  and  _303
REMARK  123  A    between atoms: _303  and  _304
REMARK  124  A    between atoms: _309  and  _311
REMARK  125  A    between atoms: _311  and  _312
REMARK  126  A    between atoms: _311  and  _314
REMARK  127  A    between atoms: _314  and  _315
REMARK  128  A    between atoms: _315  and  _316
REMARK  129  A    between atoms: _316  and  _317
REMARK  130  A    between atoms: _326  and  _328
REMARK  131  A    between atoms: _328  and  _329
REMARK  132  A    between atoms: _328  and  _331
REMARK  133  A    between atoms: _331  and  _332
REMARK  134  A    between atoms: _335  and  _337
REMARK  135  A    between atoms: _337  and  _338
REMARK  136  A    between atoms: _337  and  _340
REMARK  137  A    between atoms: _340  and  _341
REMARK  138  A    between atoms: _344  and  _346
REMARK  139  A    between atoms: _346  and  _347
REMARK  140  A    between atoms: _346  and  _349
REMARK  141  A    between atoms: _349  and  _350
REMARK  142  A    between atoms: _353  and  _355
REMARK  143  A    between atoms: _355  and  _356
REMARK  144  A    between atoms: _355  and  _358
REMARK  145  A    between atoms: _358  and  _359
REMARK  146  A    between atoms: _362  and  _364
REMARK  147  A    between atoms: _364  and  _365
REMARK  148  A    between atoms: _367  and  _369
REMARK  149  A    between atoms: _369  and  _370
REMARK  150  A    between atoms: _373  and  _375
REMARK  151  A    between atoms: _375  and  _376
REMARK  152  A    between atoms: _375  and  _378
REMARK  153  A    between atoms: _378  and  _379
REMARK  154  A    between atoms: _382  and  _384
REMARK  155  A    between atoms: _384  and  _385
REMARK  156  A    between atoms: _384  and  _387
REMARK  157  A    between atoms: _387  and  _388
REMARK  158  A    between atoms: _391  and  _393
REMARK  159  A    between atoms: _393  and  _394
REMARK  160  A    between atoms: _393  and  _396
REMARK  161  A    between atoms: _396  and  _397
REMARK  162  A    between atoms: _400  and  _402
REMARK  163  A    between atoms: _402  and  _403
REMARK  164  A    between atoms: _402  and  _405
REMARK  165  A    between atoms: _408  and  _410
REMARK  166  A    between atoms: _410  and  _411
REMARK  167  A    between atoms: _410  and  _413
REMARK  168  A    between atoms: _413  and  _414
REMARK  169  A    between atoms: _414  and  _415
REMARK  170  A    between atoms: _415  and  _416
REMARK  171  A    between atoms: _416  and  _417
REMARK  172  A    between atoms: _421  and  _423
REMARK  173  A    between atoms: _423  and  _424
REMARK  174  A    between atoms: _423  and  _426
REMARK  175  A    between atoms: _426  and  _427
REMARK  176  A    between atoms: _427  and  _428
REMARK  177  A    between atoms: _430  and  _432
REMARK  178  A    between atoms: _432  and  _433
REMARK  179  A    between atoms: _432  and  _435
REMARK  180  A    between atoms: _435  and  _436
REMARK  181  A    between atoms: _439  and  _441
REMARK  182  A    between atoms: _441  and  _442
REMARK  183  A    between atoms: _444  and  _446
REMARK  184  A    between atoms: _446  and  _447
REMARK  185  A    between atoms: _449  and  _451
REMARK  186  A    between atoms: _451  and  _452
REMARK  187  A    between atoms: _451  and  _454
REMARK  188  A    between atoms: _454  and  _455
REMARK  189  A    between atoms: _458  and  _460
REMARK  190  A    between atoms: _460  and  _461
REMARK  191  A    between atoms: _463  and  _465
REMARK  192  A    between atoms: _465  and  _466
REMARK  193  A    between atoms: _468  and  _470
REMARK  194  A    between atoms: _470  and  _471
REMARK  195  A    between atoms: _470  and  _473
REMARK  196  A    between atoms: _473  and  _474
REMARK  197  A    between atoms: _480  and  _482
REMARK  198  A    between atoms: _482  and  _483
REMARK  199  A    between atoms: _482  and  _485
REMARK  200  A    between atoms: _485  and  _486
REMARK  201  A    between atoms: _489  and  _491
REMARK  202  A    between atoms: _491  and  _492
REMARK  203  A    between atoms: _491  and  _494
REMARK  204  A    between atoms: _497  and  _499
REMARK  205  A    between atoms: _499  and  _500
REMARK  206  A    between atoms: _499  and  _502
REMARK  207  A    between atoms: _502  and  _503
REMARK  208  A    between atoms: _507  and  _508
REMARK  209  A    between atoms: _513  and  _515
REMARK  210  A    between atoms: _515  and  _516
REMARK  211  A    between atoms: _515  and  _518
REMARK  212  A    between atoms: _518  and  _519
REMARK  213  A    between atoms: _523  and  _524
REMARK  214  A    between atoms: _529  and  _531
REMARK  215  A    between atoms: _531  and  _532
REMARK  216  A    between atoms: _531  and  _534
REMARK  217  A    between atoms: _537  and  _539
REMARK  218  A    between atoms: _539  and  _540
REMARK  219  A    between atoms: _539  and  _542
REMARK  220  A    between atoms: _542  and  _543
REMARK  221  A    between atoms: _548  and  _550
REMARK  222  A    between atoms: _550  and  _551
REMARK  223  A    between atoms: _550  and  _553
REMARK  224  A    between atoms: _556  and  _558
REMARK  225  A    between atoms: _558  and  _559
REMARK  226  A    between atoms: _558  and  _561
REMARK  227  A    between atoms: _561  and  _562
REMARK  228  A    between atoms: _565  and  _567
REMARK  229  A    between atoms: _567  and  _568
REMARK  230  A    between atoms: _570  and  _572
REMARK  231  A    between atoms: _572  and  _573
REMARK  232  A    between atoms: _572  and  _575
REMARK  233  A    between atoms: _575  and  _576
REMARK  234  A    between atoms: _576  and  _577
REMARK  235  A    between atoms: _577  and  _578
REMARK  236  A    between atoms: _587  and  _589
REMARK  237  A    between atoms: _589  and  _590
REMARK  238  A    between atoms: _589  and  _592
REMARK  239  A    between atoms: _592  and  _593
REMARK                            x       y       z     vdW  Elec       q    Type
REMARK                         _______ _______ _______ _____ _____    ______ ____
ROOT
ATOM      1  O   HOH     1      12.385  15.892  12.018  0.00  0.00    +0.000 OA
ENDROOT
TORSDOF 0
REMARK  Name = ../refined-set-2016/2aoc/2aoc_pocket.pdb
REMARK  239 active torsions:
REMARK  status: ('A' for Active; 'I' for Inactive)
REMARK    1  A    between atoms: _1  and  _3
REMARK    2  A    between atoms: _3  and  _4
REMARK    3  A    between atoms: _3  and  _6
REMARK    4  A    between atoms: _6  and  _7
REMARK    5  A    between atoms: _7  and  _8
REMARK    6  A    between atoms: _8  and  _9
REMARK    7  A    between atoms: _18  and  _20
REMARK    8  A    between atoms: _20  and  _21
REMARK    9  A    between atoms: _20  and  _23
REMARK   10  A    between atoms: _23  and  _24
REMARK   11  A    between atoms: _27  and  _29
REMARK   12  A    between atoms: _29  and  _30
REMARK   13  A    between atoms: _29  and  _32
REMARK   14  A    between atoms: _33  and  _34
REMARK   15  A    between atoms: _37  and  _39
REMARK   16  A    between atoms: _39  and  _40
REMARK   17  A    between atoms: _39  and  _42
REMARK   18  A    between atoms: _42  and  _43
REMARK   19  A    between atoms: _46  and  _48
REMARK   20  A    between atoms: _48  and  _49
REMARK   21  A    between atoms: _48  and  _51
REMARK   22  A    between atoms: _51  and  _52
REMARK   23  A    between atoms: _55  and  _57
REMARK   24  A    between atoms: _57  and  _58
REMARK   25  A    between atoms: _57  and  _60
REMARK   26  A    between atoms: _60  and  _61
REMARK   27  A    between atoms: _64  and  _66
REMARK   28  A    between atoms: _66  and  _67
REMARK   29  A    between atoms: _66  and  _69
REMARK   30  A    between atoms: _69  and  _70
REMARK   31  A    between atoms: _73  and  _75
REMARK   32  A    between atoms: _75  and  _76
REMARK   33  A    between atoms: _78  and  _80
REMARK   34  A    between atoms: _80  and  _81
REMARK   35  A    between atoms: _84  and  _86
REMARK   36  A    between atoms: _86  and  _87
REMARK   37  A    between atoms: _86  and  _89
REMARK   38  A    between atoms: _89  and  _90
REMARK   39  A    between atoms: _93  and  _95
REMARK   40  A    between atoms: _95  and  _96
REMARK   41  A    between atoms: _95  and  _98
REMARK   42  A    between atoms: _98  and  _99
REMARK   43  A    between atoms: _102  and  _104
REMARK   44  A    between atoms: _104  and  _105
REMARK   45  A    between atoms: _104  and  _107
REMARK   46  A    between atoms: _107  and  _108
REMARK   47  A    between atoms: _111  and  _113
REMARK   48  A    between atoms: _113  and  _114
REMARK   49  A    between atoms: _113  and  _116
REMARK   50  A    between atoms: _119  and  _121
REMARK   51  A    between atoms: _121  and  _122
REMARK   52  A    between atoms: _121  and  _124
REMARK   53  A    between atoms: _124  and  _125
REMARK   54  A    between atoms: _125  and  _126
REMARK   55  A    between atoms: _126  and  _127
REMARK   56  A    between atoms: _127  and  _128
REMARK   57  A    between atoms: _132  and  _134
REMARK   58  A    between atoms: _134  and  _135
REMARK   59  A    between atoms: _134  and  _137
REMARK   60  A    between atoms: _137  and  _138
REMARK   61  A    between atoms: _138  and  _139
REMARK   62  A    between atoms: _141  and  _143
REMARK   63  A    between atoms: _143  and  _144
REMARK   64  A    between atoms: _143  and  _146
REMARK   65  A    between atoms: _146  and  _147
REMARK   66  A    between atoms: _150  and  _152
REMARK   67  A    between atoms: _152  and  _153
REMARK   68  A    between atoms: _155  and  _157
REMARK   69  A    between atoms: _157  and  _158
REMARK   70  A    between atoms: _160  and  _162
REMARK   71  A    between atoms: _162  and  _163
REMARK   72  A    between atoms: _162  and  _165
REMARK   73  A    between atoms: _165  and  _166
REMARK   74  A    between atoms: _169  and  _171
REMARK   75  A    between atoms: _171  and  _172
REMARK   76  A    between atoms: _174  and  _176
REMARK   77  A    between atoms: _176  and  _177
REMARK   78  A    between atoms: _179  and  _181
REMARK   79  A    between atoms: _181  and  _182
REMARK   80  A    between atoms: _181  and  _184
REMARK   81  A    between atoms: _184  and  _185
REMARK   82  A    between atoms: _191  and  _193
REMARK   83  A    between atoms: _193  and  _194
REMARK   84  A    between atoms: _193  and  _196
REMARK   85  A    between atoms: _196  and  _197
REMARK   86  A    between atoms: _200  and  _202
REMARK   87  A    between atoms: _202  and  _203
REMARK   88  A    between atoms: _202  and  _205
REMARK   89  A    between atoms: _208  and  _210
REMARK   90  A    between atoms: _210  and  _211
REMARK   91  A    between atoms: _210  and  _213
REMARK   92  A    between atoms: _213  and  _214
REMARK   93  A    between atoms: _218  and  _219
REMARK   94  A    between atoms: _224  and  _226
REMARK   95  A    between atoms: _226  and  _227
REMARK   96  A    between atoms: _226  and  _229
REMARK   97  A    between atoms: _229  and  _230
REMARK   98  A    between atoms: _234  and  _235
REMARK   99  A    between atoms: _240  and  _242
REMARK  100  A    between atoms: _242  and  _243
REMARK  101  A    between atoms: _242  and  _245
REMARK  102  A    between atoms: _248  and  _250
REMARK  103  A    between atoms: _250  and  _251
REMARK  104  A    between atoms: _250  and  _253
REMARK  105  A    between atoms: _253  and  _254
REMARK  106  A    between atoms: _259  and  _261
REMARK  107  A    between atoms: _261  and  _262
REMARK  108  A    between atoms: _261  and  _264
REMARK  109  A    between atoms: _267  and  _269
REMARK  110  A    between atoms: _269  and  _270
REMARK  111  A    between atoms: _269  and  _272
REMARK  112  A    between atoms: _272  and  _273
REMARK  113  A    between atoms: _276  and  _278
REMARK  114  A    between atoms: _278  and  _279
REMARK  115  A    between atoms: _281  and  _283
REMARK  116  A    between atoms: _283  and  _284
REMARK  117  A    between atoms: _283  and  _286
REMARK  118  A    between atoms: _287  and  _288
REMARK  119  A    between atoms: _288  and  _289
REMARK  120  A    between atoms: _298  and  _300
REMARK  121  A    between atoms: _300  and  _301
REMARK  122  A    between atoms: _300  and  _303
REMARK  123  A    between atoms: _303  and  _304
REMARK  124  A    between atoms: _309  and  _311
REMARK  125  A    between atoms: _311  and  _312
REMARK  126  A    between atoms: _311  and  _314
REMARK  127  A    between atoms: _314  and  _315
REMARK  128  A    between atoms: _315  and  _316
REMARK  129  A    between atoms: _316  and  _317
REMARK  130  A    between atoms: _326  and  _328
REMARK  131  A    between atoms: _328  and  _329
REMARK  132  A    between atoms: _328  and  _331
REMARK  133  A    between atoms: _331  and  _332
REMARK  134  A    between atoms: _335  and  _337
REMARK  135  A    between atoms: _337  and  _338
REMARK  136  A    between atoms: _337  and  _340
REMARK  137  A    between atoms: _340  and  _341
REMARK  138  A    between atoms: _344  and  _346
REMARK  139  A    between atoms: _346  and  _347
REMARK  140  A    between atoms: _346  and  _349
REMARK  141  A    between atoms: _349  and  _350
REMARK  142  A    between atoms: _353  and  _355
REMARK  143  A    between atoms: _355  and  _356
REMARK  144  A    between atoms: _355  and  _358
REMARK  145  A    between atoms: _358  and  _359
REMARK  146  A    between atoms: _362  and  _364
REMARK  147  A    between atoms: _364  and  _365
REMARK  148  A    between atoms: _367  and  _369
REMARK  149  A    between atoms: _369  and  _370
REMARK  150  A    between atoms: _373  and  _375
REMARK  151  A    between atoms: _375  and  _376
REMARK  152  A    between atoms: _375  and  _378
REMARK  153  A    between atoms: _378  and  _379
REMARK  154  A    between atoms: _382  and  _384
REMARK  155  A    between atoms: _384  and  _385
REMARK  156  A    between atoms: _384  and  _387
REMARK  157  A    between atoms: _387  and  _388
REMARK  158  A    between atoms: _391  and  _393
REMARK  159  A    between atoms: _393  and  _394
REMARK  160  A    between atoms: _393  and  _396
REMARK  161  A    between atoms: _396  and  _397
REMARK  162  A    between atoms: _400  and  _402
REMARK  163  A    between atoms: _402  and  _403
REMARK  164  A    between atoms: _402  and  _405
REMARK  165  A    between atoms: _408  and  _410
REMARK  166  A    between atoms: _410  and  _411
REMARK  167  A    between atoms: _410  and  _413
REMARK  168  A    between atoms: _413  and  _414
REMARK  169  A    between atoms: _414  and  _415
REMARK  170  A    between atoms: _415  and  _416
REMARK  171  A    between atoms: _416  and  _417
REMARK  172  A    between atoms: _421  and  _423
REMARK  173  A    between atoms: _423  and  _424
REMARK  174  A    between atoms: _423  and  _426
REMARK  175  A    between atoms: _426  and  _427
REMARK  176  A    between atoms: _427  and  _428
REMARK  177  A    between atoms: _430  and  _432
REMARK  178  A    between atoms: _432  and  _433
REMARK  179  A    between atoms: _432  and  _435
REMARK  180  A    between atoms: _435  and  _436
REMARK  181  A    between atoms: _439  and  _441
REMARK  182  A    between atoms: _441  and  _442
REMARK  183  A    between atoms: _444  and  _446
REMARK  184  A    between atoms: _446  and  _447
REMARK  185  A    between atoms: _449  and  _451
REMARK  186  A    between atoms: _451  and  _452
REMARK  187  A    between atoms: _451  and  _454
REMARK  188  A    between atoms: _454  and  _455
REMARK  189  A    between atoms: _458  and  _460
REMARK  190  A    between atoms: _460  and  _461
REMARK  191  A    between atoms: _463  and  _465
REMARK  192  A    between atoms: _465  and  _466
REMARK  193  A    between atoms: _468  and  _470
REMARK  194  A    between atoms: _470  and  _471
REMARK  195  A    between atoms: _470  and  _473
REMARK  196  A    between atoms: _473  and  _474
REMARK  197  A    between atoms: _480  and  _482
REMARK  198  A    between atoms: _482  and  _483
REMARK  199  A    between atoms: _482  and  _485
REMARK  200  A    between atoms: _485  and  _486
REMARK  201  A    between atoms: _489  and  _491
REMARK  202  A    between atoms: _491  and  _492
REMARK  203  A    between atoms: _491  and  _494
REMARK  204  A    between atoms: _497  and  _499
REMARK  205  A    between atoms: _499  and  _500
REMARK  206  A    between atoms: _499  and  _502
REMARK  207  A    between atoms: _502  and  _503
REMARK  208  A    between atoms: _507  and  _508
REMARK  209  A    between atoms: _513  and  _515
REMARK  210  A    between atoms: _515  and  _516
REMARK  211  A    between atoms: _515  and  _518
REMARK  212  A    between atoms: _518  and  _519
REMARK  213  A    between atoms: _523  and  _524
REMARK  214  A    between atoms: _529  and  _531
REMARK  215  A    between atoms: _531  and  _532
REMARK  216  A    between atoms: _531  and  _534
REMARK  217  A    between atoms: _537  and  _539
REMARK  218  A    between atoms: _539  and  _540
REMARK  219  A    between atoms: _539  and  _542
REMARK  220  A    between atoms: _542  and  _543
REMARK  221  A    between atoms: _548  and  _550
REMARK  222  A    between atoms: _550  and  _551
REMARK  223  A    between atoms: _550  and  _553
REMARK  224  A    between atoms: _556  and  _558
REMARK  225  A    between atoms: _558  and  _559
REMARK  226  A    between atoms: _558  and  _561
REMARK  227  A    between atoms: _561  and  _562
REMARK  228  A    between atoms: _565  and  _567
REMARK  229  A    between atoms: _567  and  _568
REMARK  230  A    between atoms: _570  and  _572
REMARK  231  A    between atoms: _572  and  _573
REMARK  232  A    between atoms: _572  and  _575
REMARK  233  A    between atoms: _575  and  _576
REMARK  234  A    between atoms: _576  and  _577
REMARK  235  A    between atoms: _577  and  _578
REMARK  236  A    between atoms: _587  and  _589
REMARK  237  A    between atoms: _589  and  _590
REMARK  238  A    between atoms: _589  and  _592
REMARK  239  A    between atoms: _592  and  _593
REMARK                            x       y       z     vdW  Elec       q    Type
REMARK                         _______ _______ _______ _____ _____    ______ ____
ROOT
ATOM      1  O   HOH     1      22.280  27.110  25.366  0.00  0.00    +0.000 OA
ENDROOT
TORSDOF 0
REMARK  Name = ../refined-set-2016/2aoc/2aoc_pocket.pdb
REMARK  239 active torsions:
REMARK  status: ('A' for Active; 'I' for Inactive)
REMARK    1  A    between atoms: _1  and  _3
REMARK    2  A    between atoms: _3  and  _4
REMARK    3  A    between atoms: _3  and  _6
REMARK    4  A    between atoms: _6  and  _7
REMARK    5  A    between atoms: _7  and  _8
REMARK    6  A    between atoms: _8  and  _9
REMARK    7  A    between atoms: _18  and  _20
REMARK    8  A    between atoms: _20  and  _21
REMARK    9  A    between atoms: _20  and  _23
REMARK   10  A    between atoms: _23  and  _24
REMARK   11  A    between atoms: _27  and  _29
REMARK   12  A    between atoms: _29  and  _30
REMARK   13  A    between atoms: _29  and  _32
REMARK   14  A    between atoms: _33  and  _34
REMARK   15  A    between atoms: _37  and  _39
REMARK   16  A    between atoms: _39  and  _40
REMARK   17  A    between atoms: _39  and  _42
REMARK   18  A    between atoms: _42  and  _43
REMARK   19  A    between atoms: _46  and  _48
REMARK   20  A    between atoms: _48  and  _49
REMARK   21  A    between atoms: _48  and  _51
REMARK   22  A    between atoms: _51  and  _52
REMARK   23  A    between atoms: _55  and  _57
REMARK   24  A    between atoms: _57  and  _58
REMARK   25  A    between atoms: _57  and  _60
REMARK   26  A    between atoms: _60  and  _61
REMARK   27  A    between atoms: _64  and  _66
REMARK   28  A    between atoms: _66  and  _67
REMARK   29  A    between atoms: _66  and  _69
REMARK   30  A    between atoms: _69  and  _70
REMARK   31  A    between atoms: _73  and  _75
REMARK   32  A    between atoms: _75  and  _76
REMARK   33  A    between atoms: _78  and  _80
REMARK   34  A    between atoms: _80  and  _81
REMARK   35  A    between atoms: _84  and  _86
REMARK   36  A    between atoms: _86  and  _87
REMARK   37  A    between atoms: _86  and  _89
REMARK   38  A    between atoms: _89  and  _90
REMARK   39  A    between atoms: _93  and  _95
REMARK   40  A    between atoms: _95  and  _96
REMARK   41  A    between atoms: _95  and  _98
REMARK   42  A    between atoms: _98  and  _99
REMARK   43  A    between atoms: _102  and  _104
REMARK   44  A    between atoms: _104  and  _105
REMARK   45  A    between atoms: _104  and  _107
REMARK   46  A    between atoms: _107  and  _108
REMARK   47  A    between atoms: _111  and  _113
REMARK   48  A    between atoms: _113  and  _114
REMARK   49  A    between atoms: _113  and  _116
REMARK   50  A    between atoms: _119  and  _121
REMARK   51  A    between atoms: _121  and  _122
REMARK   52  A    between atoms: _121  and  _124
REMARK   53  A    between atoms: _124  and  _125
REMARK   54  A    between atoms: _125  and  _126
REMARK   55  A    between atoms: _126  and  _127
REMARK   56  A    between atoms: _127  and  _128
REMARK   57  A    between atoms: _132  and  _134
REMARK   58  A    between atoms: _134  and  _135
REMARK   59  A    between atoms: _134  and  _137
REMARK   60  A    between atoms: _137  and  _138
REMARK   61  A    between atoms: _138  and  _139
REMARK   62  A    between atoms: _141  and  _143
REMARK   63  A    between atoms: _143  and  _144
REMARK   64  A    between atoms: _143  and  _146
REMARK   65  A    between atoms: _146  and  _147
REMARK   66  A    between atoms: _150  and  _152
REMARK   67  A    between atoms: _152  and  _153
REMARK   68  A    between atoms: _155  and  _157
REMARK   69  A    between atoms: _157  and  _158
REMARK   70  A    between atoms: _160  and  _162
REMARK   71  A    between atoms: _162  and  _163
REMARK   72  A    between atoms: _162  and  _165
REMARK   73  A    between atoms: _165  and  _166
REMARK   74  A    between atoms: _169  and  _171
REMARK   75  A    between atoms: _171  and  _172
REMARK   76  A    between atoms: _174  and  _176
REMARK   77  A    between atoms: _176  and  _177
REMARK   78  A    between atoms: _179  and  _181
REMARK   79  A    between atoms: _181  and  _182
REMARK   80  A    between atoms: _181  and  _184
REMARK   81  A    between atoms: _184  and  _185
REMARK   82  A    between atoms: _191  and  _193
REMARK   83  A    between atoms: _193  and  _194
REMARK   84  A    between atoms: _193  and  _196
REMARK   85  A    between atoms: _196  and  _197
REMARK   86  A    between atoms: _200  and  _202
REMARK   87  A    between atoms: _202  and  _203
REMARK   88  A    between atoms: _202  and  _205
REMARK   89  A    between atoms: _208  and  _210
REMARK   90  A    between atoms: _210  and  _211
REMARK   91  A    between atoms: _210  and  _213
REMARK   92  A    between atoms: _213  and  _214
REMARK   93  A    between atoms: _218  and  _219
REMARK   94  A    between atoms: _224  and  _226
REMARK   95  A    between atoms: _226  and  _227
REMARK   96  A    between atoms: _226  and  _229
REMARK   97  A    between atoms: _229  and  _230
REMARK   98  A    between atoms: _234  and  _235
REMARK   99  A    between atoms: _240  and  _242
REMARK  100  A    between atoms: _242  and  _243
REMARK  101  A    between atoms: _242  and  _245
REMARK  102  A    between atoms: _248  and  _250
REMARK  103  A    between atoms: _250  and  _251
REMARK  104  A    between atoms: _250  and  _253
REMARK  105  A    between atoms: _253  and  _254
REMARK  106  A    between atoms: _259  and  _261
REMARK  107  A    between atoms: _261  and  _262
REMARK  108  A    between atoms: _261  and  _264
REMARK  109  A    between atoms: _267  and  _269
REMARK  110  A    between atoms: _269  and  _270
REMARK  111  A    between atoms: _269  and  _272
REMARK  112  A    between atoms: _272  and  _273
REMARK  113  A    between atoms: _276  and  _278
REMARK  114  A    between atoms: _278  and  _279
REMARK  115  A    between atoms: _281  and  _283
REMARK  116  A    between atoms: _283  and  _284
REMARK  117  A    between atoms: _283  and  _286
REMARK  118  A    between atoms: _287  and  _288
REMARK  119  A    between atoms: _288  and  _289
REMARK  120  A    between atoms: _298  and  _300
REMARK  121  A    between atoms: _300  and  _301
REMARK  122  A    between atoms: _300  and  _303
REMARK  123  A    between atoms: _303  and  _304
REMARK  124  A    between atoms: _309  and  _311
REMARK  125  A    between atoms: _311  and  _312
REMARK  126  A    between atoms: _311  and  _314
REMARK  127  A    between atoms: _314  and  _315
REMARK  128  A    between atoms: _315  and  _316
REMARK  129  A    between atoms: _316  and  _317
REMARK  130  A    between atoms: _326  and  _328
REMARK  131  A    between atoms: _328  and  _329
REMARK  132  A    between atoms: _328  and  _331
REMARK  133  A    between atoms: _331  and  _332
REMARK  134  A    between atoms: _335  and  _337
REMARK  135  A    between atoms: _337  and  _338
REMARK  136  A    between atoms: _337  and  _340
REMARK  137  A    between atoms: _340  and  _341
REMARK  138  A    between atoms: _344  and  _346
REMARK  139  A    between atoms: _346  and  _347
REMARK  140  A    between atoms: _346  and  _349
REMARK  141  A    between atoms: _349  and  _350
REMARK  142  A    between atoms: _353  and  _355
REMARK  143  A    between atoms: _355  and  _356
REMARK  144  A    between atoms: _355  and  _358
REMARK  145  A    between atoms: _358  and  _359
REMARK  146  A    between atoms: _362  and  _364
REMARK  147  A    between atoms: _364  and  _365
REMARK  148  A    between atoms: _367  and  _369
REMARK  149  A    between atoms: _369  and  _370
REMARK  150  A    between atoms: _373  and  _375
REMARK  151  A    between atoms: _375  and  _376
REMARK  152  A    between atoms: _375  and  _378
REMARK  153  A    between atoms: _378  and  _379
REMARK  154  A    between atoms: _382  and  _384
REMARK  155  A    between atoms: _384  and  _385
REMARK  156  A    between atoms: _384  and  _387
REMARK  157  A    between atoms: _387  and  _388
REMARK  158  A    between atoms: _391  and  _393
REMARK  159  A    between atoms: _393  and  _394
REMARK  160  A    between atoms: _393  and  _396
REMARK  161  A    between atoms: _396  and  _397
REMARK  162  A    between atoms: _400  and  _402
REMARK  163  A    between atoms: _402  and  _403
REMARK  164  A    between atoms: _402  and  _405
REMARK  165  A    between atoms: _408  and  _410
REMARK  166  A    between atoms: _410  and  _411
REMARK  167  A    between atoms: _410  and  _413
REMARK  168  A    between atoms: _413  and  _414
REMARK  169  A    between atoms: _414  and  _415
REMARK  170  A    between atoms: _415  and  _416
REMARK  171  A    between atoms: _416  and  _417
REMARK  172  A    between atoms: _421  and  _423
REMARK  173  A    between atoms: _423  and  _424
REMARK  174  A    between atoms: _423  and  _426
REMARK  175  A    between atoms: _426  and  _427
REMARK  176  A    between atoms: _427  and  _428
REMARK  177  A    between atoms: _430  and  _432
REMARK  178  A    between atoms: _432  and  _433
REMARK  179  A    between atoms: _432  and  _435
REMARK  180  A    between atoms: _435  and  _436
REMARK  181  A    between atoms: _439  and  _441
REMARK  182  A    between atoms: _441  and  _442
REMARK  183  A    between atoms: _444  and  _446
REMARK  184  A    between atoms: _446  and  _447
REMARK  185  A    between atoms: _449  and  _451
REMARK  186  A    between atoms: _451  and  _452
REMARK  187  A    between atoms: _451  and  _454
REMARK  188  A    between atoms: _454  and  _455
REMARK  189  A    between atoms: _458  and  _460
REMARK  190  A    between atoms: _460  and  _461
REMARK  191  A    between atoms: _463  and  _465
REMARK  192  A    between atoms: _465  and  _466
REMARK  193  A    between atoms: _468  and  _470
REMARK  194  A    between atoms: _470  and  _471
REMARK  195  A    between atoms: _470  and  _473
REMARK  196  A    between atoms: _473  and  _474
REMARK  197  A    between atoms: _480  and  _482
REMARK  198  A    between atoms: _482  and  _483
REMARK  199  A    between atoms: _482  and  _485
REMARK  200  A    between atoms: _485  and  _486
REMARK  201  A    between atoms: _489  and  _491
REMARK  202  A    between atoms: _491  and  _492
REMARK  203  A    between atoms: _491  and  _494
REMARK  204  A    between atoms: _497  and  _499
REMARK  205  A    between atoms: _499  and  _500
REMARK  206  A    between atoms: _499  and  _502
REMARK  207  A    between atoms: _502  and  _503
REMARK  208  A    between atoms: _507  and  _508
REMARK  209  A    between atoms: _513  and  _515
REMARK  210  A    between atoms: _515  and  _516
REMARK  211  A    between atoms: _515  and  _518
REMARK  212  A    between atoms: _518  and  _519
REMARK  213  A    between atoms: _523  and  _524
REMARK  214  A    between atoms: _529  and  _531
REMARK  215  A    between atoms: _531  and  _532
REMARK  216  A    between atoms: _531  and  _534
REMARK  217  A    between atoms: _537  and  _539
REMARK  218  A    between atoms: _539  and  _540
REMARK  219  A    between atoms: _539  and  _542
REMARK  220  A    between atoms: _542  and  _543
REMARK  221  A    between atoms: _548  and  _550
REMARK  222  A    between atoms: _550  and  _551
REMARK  223  A    between atoms: _550  and  _553
REMARK  224  A    between atoms: _556  and  _558
REMARK  225  A    between atoms: _558  and  _559
REMARK  226  A    between atoms: _558  and  _561
REMARK  227  A    between atoms: _561  and  _562
REMARK  228  A    between atoms: _565  and  _567
REMARK  229  A    between atoms: _567  and  _568
REMARK  230  A    between atoms: _570  and  _572
REMARK  231  A    between atoms: _572  and  _573
REMARK  232  A    between atoms: _572  and  _575
REMARK  233  A    between atoms: _575  and  _576
REMARK  234  A    between atoms: _576  and  _577
REMARK  235  A    between atoms: _577  and  _578
REMARK  236  A    between atoms: _587  and  _589
REMARK  237  A    between atoms: _589  and  _590
REMARK  238  A    between atoms: _589  and  _592
REMARK  239  A    between atoms: _592  and  _593
REMARK                            x       y       z     vdW  Elec       q    Type
REMARK                         _______ _______ _______ _____ _____    ______ ____
ROOT
ATOM      1  O   HOH     1      25.471  25.089  22.324  0.00  0.00    +0.000 OA
ENDROOT
TORSDOF 0
REMARK  Name = ../refined-set-2016/2aoc/2aoc_pocket.pdb
REMARK  239 active torsions:
REMARK  status: ('A' for Active; 'I' for Inactive)
REMARK    1  A    between atoms: _1  and  _3
REMARK    2  A    between atoms: _3  and  _4
REMARK    3  A    between atoms: _3  and  _6
REMARK    4  A    between atoms: _6  and  _7
REMARK    5  A    between atoms: _7  and  _8
REMARK    6  A    between atoms: _8  and  _9
REMARK    7  A    between atoms: _18  and  _20
REMARK    8  A    between atoms: _20  and  _21
REMARK    9  A    between atoms: _20  and  _23
REMARK   10  A    between atoms: _23  and  _24
REMARK   11  A    between atoms: _27  and  _29
REMARK   12  A    between atoms: _29  and  _30
REMARK   13  A    between atoms: _29  and  _32
REMARK   14  A    between atoms: _33  and  _34
REMARK   15  A    between atoms: _37  and  _39
REMARK   16  A    between atoms: _39  and  _40
REMARK   17  A    between atoms: _39  and  _42
REMARK   18  A    between atoms: _42  and  _43
REMARK   19  A    between atoms: _46  and  _48
REMARK   20  A    between atoms: _48  and  _49
REMARK   21  A    between atoms: _48  and  _51
REMARK   22  A    between atoms: _51  and  _52
REMARK   23  A    between atoms: _55  and  _57
REMARK   24  A    between atoms: _57  and  _58
REMARK   25  A    between atoms: _57  and  _60
REMARK   26  A    between atoms: _60  and  _61
REMARK   27  A    between atoms: _64  and  _66
REMARK   28  A    between atoms: _66  and  _67
REMARK   29  A    between atoms: _66  and  _69
REMARK   30  A    between atoms: _69  and  _70
REMARK   31  A    between atoms: _73  and  _75
REMARK   32  A    between atoms: _75  and  _76
REMARK   33  A    between atoms: _78  and  _80
REMARK   34  A    between atoms: _80  and  _81
REMARK   35  A    between atoms: _84  and  _86
REMARK   36  A    between atoms: _86  and  _87
REMARK   37  A    between atoms: _86  and  _89
REMARK   38  A    between atoms: _89  and  _90
REMARK   39  A    between atoms: _93  and  _95
REMARK   40  A    between atoms: _95  and  _96
REMARK   41  A    between atoms: _95  and  _98
REMARK   42  A    between atoms: _98  and  _99
REMARK   43  A    between atoms: _102  and  _104
REMARK   44  A    between atoms: _104  and  _105
REMARK   45  A    between atoms: _104  and  _107
REMARK   46  A    between atoms: _107  and  _108
REMARK   47  A    between atoms: _111  and  _113
REMARK   48  A    between atoms: _113  and  _114
REMARK   49  A    between atoms: _113  and  _116
REMARK   50  A    between atoms: _119  and  _121
REMARK   51  A    between atoms: _121  and  _122
REMARK   52  A    between atoms: _121  and  _124
REMARK   53  A    between atoms: _124  and  _125
REMARK   54  A    between atoms: _125  and  _126
REMARK   55  A    between atoms: _126  and  _127
REMARK   56  A    between atoms: _127  and  _128
REMARK   57  A    between atoms: _132  and  _134
REMARK   58  A    between atoms: _134  and  _135
REMARK   59  A    between atoms: _134  and  _137
REMARK   60  A    between atoms: _137  and  _138
REMARK   61  A    between atoms: _138  and  _139
REMARK   62  A    between atoms: _141  and  _143
REMARK   63  A    between atoms: _143  and  _144
REMARK   64  A    between atoms: _143  and  _146
REMARK   65  A    between atoms: _146  and  _147
REMARK   66  A    between atoms: _150  and  _152
REMARK   67  A    between atoms: _152  and  _153
REMARK   68  A    between atoms: _155  and  _157
REMARK   69  A    between atoms: _157  and  _158
REMARK   70  A    between atoms: _160  and  _162
REMARK   71  A    between atoms: _162  and  _163
REMARK   72  A    between atoms: _162  and  _165
REMARK   73  A    between atoms: _165  and  _166
REMARK   74  A    between atoms: _169  and  _171
REMARK   75  A    between atoms: _171  and  _172
REMARK   76  A    between atoms: _174  and  _176
REMARK   77  A    between atoms: _176  and  _177
REMARK   78  A    between atoms: _179  and  _181
REMARK   79  A    between atoms: _181  and  _182
REMARK   80  A    between atoms: _181  and  _184
REMARK   81  A    between atoms: _184  and  _185
REMARK   82  A    between atoms: _191  and  _193
REMARK   83  A    between atoms: _193  and  _194
REMARK   84  A    between atoms: _193  and  _196
REMARK   85  A    between atoms: _196  and  _197
REMARK   86  A    between atoms: _200  and  _202
REMARK   87  A    between atoms: _202  and  _203
REMARK   88  A    between atoms: _202  and  _205
REMARK   89  A    between atoms: _208  and  _210
REMARK   90  A    between atoms: _210  and  _211
REMARK   91  A    between atoms: _210  and  _213
REMARK   92  A    between atoms: _213  and  _214
REMARK   93  A    between atoms: _218  and  _219
REMARK   94  A    between atoms: _224  and  _226
REMARK   95  A    between atoms: _226  and  _227
REMARK   96  A    between atoms: _226  and  _229
REMARK   97  A    between atoms: _229  and  _230
REMARK   98  A    between atoms: _234  and  _235
REMARK   99  A    between atoms: _240  and  _242
REMARK  100  A    between atoms: _242  and  _243
REMARK  101  A    between atoms: _242  and  _245
REMARK  102  A    between atoms: _248  and  _250
REMARK  103  A    between atoms: _250  and  _251
REMARK  104  A    between atoms: _250  and  _253
REMARK  105  A    between atoms: _253  and  _254
REMARK  106  A    between atoms: _259  and  _261
REMARK  107  A    between atoms: _261  and  _262
REMARK  108  A    between atoms: _261  and  _264
REMARK  109  A    between atoms: _267  and  _269
REMARK  110  A    between atoms: _269  and  _270
REMARK  111  A    between atoms: _269  and  _272
REMARK  112  A    between atoms: _272  and  _273
REMARK  113  A    between atoms: _276  and  _278
REMARK  114  A    between atoms: _278  and  _279
REMARK  115  A    between atoms: _281  and  _283
REMARK  116  A    between atoms: _283  and  _284
REMARK  117  A    between atoms: _283  and  _286
REMARK  118  A    between atoms: _287  and  _288
REMARK  119  A    between atoms: _288  and  _289
REMARK  120  A    between atoms: _298  and  _300
REMARK  121  A    between atoms: _300  and  _301
REMARK  122  A    between atoms: _300  and  _303
REMARK  123  A    between atoms: _303  and  _304
REMARK  124  A    between atoms: _309  and  _311
REMARK  125  A    between atoms: _311  and  _312
REMARK  126  A    between atoms: _311  and  _314
REMARK  127  A    between atoms: _314  and  _315
REMARK  128  A    between atoms: _315  and  _316
REMARK  129  A    between atoms: _316  and  _317
REMARK  130  A    between atoms: _326  and  _328
REMARK  131  A    between atoms: _328  and  _329
REMARK  132  A    between atoms: _328  and  _331
REMARK  133  A    between atoms: _331  and  _332
REMARK  134  A    between atoms: _335  and  _337
REMARK  135  A    between atoms: _337  and  _338
REMARK  136  A    between atoms: _337  and  _340
REMARK  137  A    between atoms: _340  and  _341
REMARK  138  A    between atoms: _344  and  _346
REMARK  139  A    between atoms: _346  and  _347
REMARK  140  A    between atoms: _346  and  _349
REMARK  141  A    between atoms: _349  and  _350
REMARK  142  A    between atoms: _353  and  _355
REMARK  143  A    between atoms: _355  and  _356
REMARK  144  A    between atoms: _355  and  _358
REMARK  145  A    between atoms: _358  and  _359
REMARK  146  A    between atoms: _362  and  _364
REMARK  147  A    between atoms: _364  and  _365
REMARK  148  A    between atoms: _367  and  _369
REMARK  149  A    between atoms: _369  and  _370
REMARK  150  A    between atoms: _373  and  _375
REMARK  151  A    between atoms: _375  and  _376
REMARK  152  A    between atoms: _375  and  _378
REMARK  153  A    between atoms: _378  and  _379
REMARK  154  A    between atoms: _382  and  _384
REMARK  155  A    between atoms: _384  and  _385
REMARK  156  A    between atoms: _384  and  _387
REMARK  157  A    between atoms: _387  and  _388
REMARK  158  A    between atoms: _391  and  _393
REMARK  159  A    between atoms: _393  and  _394
REMARK  160  A    between atoms: _393  and  _396
REMARK  161  A    between atoms: _396  and  _397
REMARK  162  A    between atoms: _400  and  _402
REMARK  163  A    between atoms: _402  and  _403
REMARK  164  A    between atoms: _402  and  _405
REMARK  165  A    between atoms: _408  and  _410
REMARK  166  A    between atoms: _410  and  _411
REMARK  167  A    between atoms: _410  and  _413
REMARK  168  A    between atoms: _413  and  _414
REMARK  169  A    between atoms: _414  and  _415
REMARK  170  A    between atoms: _415  and  _416
REMARK  171  A    between atoms: _416  and  _417
REMARK  172  A    between atoms: _421  and  _423
REMARK  173  A    between atoms: _423  and  _424
REMARK  174  A    between atoms: _423  and  _426
REMARK  175  A    between atoms: _426  and  _427
REMARK  176  A    between atoms: _427  and  _428
REMARK  177  A    between atoms: _430  and  _432
REMARK  178  A    between atoms: _432  and  _433
REMARK  179  A    between atoms: _432  and  _435
REMARK  180  A    between atoms: _435  and  _436
REMARK  181  A    between atoms: _439  and  _441
REMARK  182  A    between atoms: _441  and  _442
REMARK  183  A    between atoms: _444  and  _446
REMARK  184  A    between atoms: _446  and  _447
REMARK  185  A    between atoms: _449  and  _451
REMARK  186  A    between atoms: _451  and  _452
REMARK  187  A    between atoms: _451  and  _454
REMARK  188  A    between atoms: _454  and  _455
REMARK  189  A    between atoms: _458  and  _460
REMARK  190  A    between atoms: _460  and  _461
REMARK  191  A    between atoms: _463  and  _465
REMARK  192  A    between atoms: _465  and  _466
REMARK  193  A    between atoms: _468  and  _470
REMARK  194  A    between atoms: _470  and  _471
REMARK  195  A    between atoms: _470  and  _473
REMARK  196  A    between atoms: _473  and  _474
REMARK  197  A    between atoms: _480  and  _482
REMARK  198  A    between atoms: _482  and  _483
REMARK  199  A    between atoms: _482  and  _485
REMARK  200  A    between atoms: _485  and  _486
REMARK  201  A    between atoms: _489  and  _491
REMARK  202  A    between atoms: _491  and  _492
REMARK  203  A    between atoms: _491  and  _494
REMARK  204  A    between atoms: _497  and  _499
REMARK  205  A    between atoms: _499  and  _500
REMARK  206  A    between atoms: _499  and  _502
REMARK  207  A    between atoms: _502  and  _503
REMARK  208  A    between atoms: _507  and  _508
REMARK  209  A    between atoms: _513  and  _515
REMARK  210  A    between atoms: _515  and  _516
REMARK  211  A    between atoms: _515  and  _518
REMARK  212  A    between atoms: _518  and  _519
REMARK  213  A    between atoms: _523  and  _524
REMARK  214  A    between atoms: _529  and  _531
REMARK  215  A    between atoms: _531  and  _532
REMARK  216  A    between atoms: _531  and  _534
REMARK  217  A    between atoms: _537  and  _539
REMARK  218  A    between atoms: _539  and  _540
REMARK  219  A    between atoms: _539  and  _542
REMARK  220  A    between atoms: _542  and  _543
REMARK  221  A    between atoms: _548  and  _550
REMARK  222  A    between atoms: _550  and  _551
REMARK  223  A    between atoms: _550  and  _553
REMARK  224  A    between atoms: _556  and  _558
REMARK  225  A    between atoms: _558  and  _559
REMARK  226  A    between atoms: _558  and  _561
REMARK  227  A    between atoms: _561  and  _562
REMARK  228  A    between atoms: _565  and  _567
REMARK  229  A    between atoms: _567  and  _568
REMARK  230  A    between atoms: _570  and  _572
REMARK  231  A    between atoms: _572  and  _573
REMARK  232  A    between atoms: _572  and  _575
REMARK  233  A    between atoms: _575  and  _576
REMARK  234  A    between atoms: _576  and  _577
REMARK  235  A    between atoms: _577  and  _578
REMARK  236  A    between atoms: _587  and  _589
REMARK  237  A    between atoms: _589  and  _590
REMARK  238  A    between atoms: _589  and  _592
REMARK  239  A    between atoms: _592  and  _593
REMARK                            x       y       z     vdW  Elec       q    Type
REMARK                         _______ _______ _______ _____ _____    ______ ____
ROOT
ATOM      1  O   HOH     1      27.311  27.416  21.802  0.00  0.00    +0.000 OA
ENDROOT
TORSDOF 0
REMARK  Name = ../refined-set-2016/2aoc/2aoc_pocket.pdb
REMARK  239 active torsions:
REMARK  status: ('A' for Active; 'I' for Inactive)
REMARK    1  A    between atoms: _1  and  _3
REMARK    2  A    between atoms: _3  and  _4
REMARK    3  A    between atoms: _3  and  _6
REMARK    4  A    between atoms: _6  and  _7
REMARK    5  A    between atoms: _7  and  _8
REMARK    6  A    between atoms: _8  and  _9
REMARK    7  A    between atoms: _18  and  _20
REMARK    8  A    between atoms: _20  and  _21
REMARK    9  A    between atoms: _20  and  _23
REMARK   10  A    between atoms: _23  and  _24
REMARK   11  A    between atoms: _27  and  _29
REMARK   12  A    between atoms: _29  and  _30
REMARK   13  A    between atoms: _29  and  _32
REMARK   14  A    between atoms: _33  and  _34
REMARK   15  A    between atoms: _37  and  _39
REMARK   16  A    between atoms: _39  and  _40
REMARK   17  A    between atoms: _39  and  _42
REMARK   18  A    between atoms: _42  and  _43
REMARK   19  A    between atoms: _46  and  _48
REMARK   20  A    between atoms: _48  and  _49
REMARK   21  A    between atoms: _48  and  _51
REMARK   22  A    between atoms: _51  and  _52
REMARK   23  A    between atoms: _55  and  _57
REMARK   24  A    between atoms: _57  and  _58
REMARK   25  A    between atoms: _57  and  _60
REMARK   26  A    between atoms: _60  and  _61
REMARK   27  A    between atoms: _64  and  _66
REMARK   28  A    between atoms: _66  and  _67
REMARK   29  A    between atoms: _66  and  _69
REMARK   30  A    between atoms: _69  and  _70
REMARK   31  A    between atoms: _73  and  _75
REMARK   32  A    between atoms: _75  and  _76
REMARK   33  A    between atoms: _78  and  _80
REMARK   34  A    between atoms: _80  and  _81
REMARK   35  A    between atoms: _84  and  _86
REMARK   36  A    between atoms: _86  and  _87
REMARK   37  A    between atoms: _86  and  _89
REMARK   38  A    between atoms: _89  and  _90
REMARK   39  A    between atoms: _93  and  _95
REMARK   40  A    between atoms: _95  and  _96
REMARK   41  A    between atoms: _95  and  _98
REMARK   42  A    between atoms: _98  and  _99
REMARK   43  A    between atoms: _102  and  _104
REMARK   44  A    between atoms: _104  and  _105
REMARK   45  A    between atoms: _104  and  _107
REMARK   46  A    between atoms: _107  and  _108
REMARK   47  A    between atoms: _111  and  _113
REMARK   48  A    between atoms: _113  and  _114
REMARK   49  A    between atoms: _113  and  _116
REMARK   50  A    between atoms: _119  and  _121
REMARK   51  A    between atoms: _121  and  _122
REMARK   52  A    between atoms: _121  and  _124
REMARK   53  A    between atoms: _124  and  _125
REMARK   54  A    between atoms: _125  and  _126
REMARK   55  A    between atoms: _126  and  _127
REMARK   56  A    between atoms: _127  and  _128
REMARK   57  A    between atoms: _132  and  _134
REMARK   58  A    between atoms: _134  and  _135
REMARK   59  A    between atoms: _134  and  _137
REMARK   60  A    between atoms: _137  and  _138
REMARK   61  A    between atoms: _138  and  _139
REMARK   62  A    between atoms: _141  and  _143
REMARK   63  A    between atoms: _143  and  _144
REMARK   64  A    between atoms: _143  and  _146
REMARK   65  A    between atoms: _146  and  _147
REMARK   66  A    between atoms: _150  and  _152
REMARK   67  A    between atoms: _152  and  _153
REMARK   68  A    between atoms: _155  and  _157
REMARK   69  A    between atoms: _157  and  _158
REMARK   70  A    between atoms: _160  and  _162
REMARK   71  A    between atoms: _162  and  _163
REMARK   72  A    between atoms: _162  and  _165
REMARK   73  A    between atoms: _165  and  _166
REMARK   74  A    between atoms: _169  and  _171
REMARK   75  A    between atoms: _171  and  _172
REMARK   76  A    between atoms: _174  and  _176
REMARK   77  A    between atoms: _176  and  _177
REMARK   78  A    between atoms: _179  and  _181
REMARK   79  A    between atoms: _181  and  _182
REMARK   80  A    between atoms: _181  and  _184
REMARK   81  A    between atoms: _184  and  _185
REMARK   82  A    between atoms: _191  and  _193
REMARK   83  A    between atoms: _193  and  _194
REMARK   84  A    between atoms: _193  and  _196
REMARK   85  A    between atoms: _196  and  _197
REMARK   86  A    between atoms: _200  and  _202
REMARK   87  A    between atoms: _202  and  _203
REMARK   88  A    between atoms: _202  and  _205
REMARK   89  A    between atoms: _208  and  _210
REMARK   90  A    between atoms: _210  and  _211
REMARK   91  A    between atoms: _210  and  _213
REMARK   92  A    between atoms: _213  and  _214
REMARK   93  A    between atoms: _218  and  _219
REMARK   94  A    between atoms: _224  and  _226
REMARK   95  A    between atoms: _226  and  _227
REMARK   96  A    between atoms: _226  and  _229
REMARK   97  A    between atoms: _229  and  _230
REMARK   98  A    between atoms: _234  and  _235
REMARK   99  A    between atoms: _240  and  _242
REMARK  100  A    between atoms: _242  and  _243
REMARK  101  A    between atoms: _242  and  _245
REMARK  102  A    between atoms: _248  and  _250
REMARK  103  A    between atoms: _250  and  _251
REMARK  104  A    between atoms: _250  and  _253
REMARK  105  A    between atoms: _253  and  _254
REMARK  106  A    between atoms: _259  and  _261
REMARK  107  A    between atoms: _261  and  _262
REMARK  108  A    between atoms: _261  and  _264
REMARK  109  A    between atoms: _267  and  _269
REMARK  110  A    between atoms: _269  and  _270
REMARK  111  A    between atoms: _269  and  _272
REMARK  112  A    between atoms: _272  and  _273
REMARK  113  A    between atoms: _276  and  _278
REMARK  114  A    between atoms: _278  and  _279
REMARK  115  A    between atoms: _281  and  _283
REMARK  116  A    between atoms: _283  and  _284
REMARK  117  A    between atoms: _283  and  _286
REMARK  118  A    between atoms: _287  and  _288
REMARK  119  A    between atoms: _288  and  _289
REMARK  120  A    between atoms: _298  and  _300
REMARK  121  A    between atoms: _300  and  _301
REMARK  122  A    between atoms: _300  and  _303
REMARK  123  A    between atoms: _303  and  _304
REMARK  124  A    between atoms: _309  and  _311
REMARK  125  A    between atoms: _311  and  _312
REMARK  126  A    between atoms: _311  and  _314
REMARK  127  A    between atoms: _314  and  _315
REMARK  128  A    between atoms: _315  and  _316
REMARK  129  A    between atoms: _316  and  _317
REMARK  130  A    between atoms: _326  and  _328
REMARK  131  A    between atoms: _328  and  _329
REMARK  132  A    between atoms: _328  and  _331
REMARK  133  A    between atoms: _331  and  _332
REMARK  134  A    between atoms: _335  and  _337
REMARK  135  A    between atoms: _337  and  _338
REMARK  136  A    between atoms: _337  and  _340
REMARK  137  A    between atoms: _340  and  _341
REMARK  138  A    between atoms: _344  and  _346
REMARK  139  A    between atoms: _346  and  _347
REMARK  140  A    between atoms: _346  and  _349
REMARK  141  A    between atoms: _349  and  _350
REMARK  142  A    between atoms: _353  and  _355
REMARK  143  A    between atoms: _355  and  _356
REMARK  144  A    between atoms: _355  and  _358
REMARK  145  A    between atoms: _358  and  _359
REMARK  146  A    between atoms: _362  and  _364
REMARK  147  A    between atoms: _364  and  _365
REMARK  148  A    between atoms: _367  and  _369
REMARK  149  A    between atoms: _369  and  _370
REMARK  150  A    between atoms: _373  and  _375
REMARK  151  A    between atoms: _375  and  _376
REMARK  152  A    between atoms: _375  and  _378
REMARK  153  A    between atoms: _378  and  _379
REMARK  154  A    between atoms: _382  and  _384
REMARK  155  A    between atoms: _384  and  _385
REMARK  156  A    between atoms: _384  and  _387
REMARK  157  A    between atoms: _387  and  _388
REMARK  158  A    between atoms: _391  and  _393
REMARK  159  A    between atoms: _393  and  _394
REMARK  160  A    between atoms: _393  and  _396
REMARK  161  A    between atoms: _396  and  _397
REMARK  162  A    between atoms: _400  and  _402
REMARK  163  A    between atoms: _402  and  _403
REMARK  164  A    between atoms: _402  and  _405
REMARK  165  A    between atoms: _408  and  _410
REMARK  166  A    between atoms: _410  and  _411
REMARK  167  A    between atoms: _410  and  _413
REMARK  168  A    between atoms: _413  and  _414
REMARK  169  A    between atoms: _414  and  _415
REMARK  170  A    between atoms: _415  and  _416
REMARK  171  A    between atoms: _416  and  _417
REMARK  172  A    between atoms: _421  and  _423
REMARK  173  A    between atoms: _423  and  _424
REMARK  174  A    between atoms: _423  and  _426
REMARK  175  A    between atoms: _426  and  _427
REMARK  176  A    between atoms: _427  and  _428
REMARK  177  A    between atoms: _430  and  _432
REMARK  178  A    between atoms: _432  and  _433
REMARK  179  A    between atoms: _432  and  _435
REMARK  180  A    between atoms: _435  and  _436
REMARK  181  A    between atoms: _439  and  _441
REMARK  182  A    between atoms: _441  and  _442
REMARK  183  A    between atoms: _444  and  _446
REMARK  184  A    between atoms: _446  and  _447
REMARK  185  A    between atoms: _449  and  _451
REMARK  186  A    between atoms: _451  and  _452
REMARK  187  A    between atoms: _451  and  _454
REMARK  188  A    between atoms: _454  and  _455
REMARK  189  A    between atoms: _458  and  _460
REMARK  190  A    between atoms: _460  and  _461
REMARK  191  A    between atoms: _463  and  _465
REMARK  192  A    between atoms: _465  and  _466
REMARK  193  A    between atoms: _468  and  _470
REMARK  194  A    between atoms: _470  and  _471
REMARK  195  A    between atoms: _470  and  _473
REMARK  196  A    between atoms: _473  and  _474
REMARK  197  A    between atoms: _480  and  _482
REMARK  198  A    between atoms: _482  and  _483
REMARK  199  A    between atoms: _482  and  _485
REMARK  200  A    between atoms: _485  and  _486
REMARK  201  A    between atoms: _489  and  _491
REMARK  202  A    between atoms: _491  and  _492
REMARK  203  A    between atoms: _491  and  _494
REMARK  204  A    between atoms: _497  and  _499
REMARK  205  A    between atoms: _499  and  _500
REMARK  206  A    between atoms: _499  and  _502
REMARK  207  A    between atoms: _502  and  _503
REMARK  208  A    between atoms: _507  and  _508
REMARK  209  A    between atoms: _513  and  _515
REMARK  210  A    between atoms: _515  and  _516
REMARK  211  A    between atoms: _515  and  _518
REMARK  212  A    between atoms: _518  and  _519
REMARK  213  A    between atoms: _523  and  _524
REMARK  214  A    between atoms: _529  and  _531
REMARK  215  A    between atoms: _531  and  _532
REMARK  216  A    between atoms: _531  and  _534
REMARK  217  A    between atoms: _537  and  _539
REMARK  218  A    between atoms: _539  and  _540
REMARK  219  A    between atoms: _539  and  _542
REMARK  220  A    between atoms: _542  and  _543
REMARK  221  A    between atoms: _548  and  _550
REMARK  222  A    between atoms: _550  and  _551
REMARK  223  A    between atoms: _550  and  _553
REMARK  224  A    between atoms: _556  and  _558
REMARK  225  A    between atoms: _558  and  _559
REMARK  226  A    between atoms: _558  and  _561
REMARK  227  A    between atoms: _561  and  _562
REMARK  228  A    between atoms: _565  and  _567
REMARK  229  A    between atoms: _567  and  _568
REMARK  230  A    between atoms: _570  and  _572
REMARK  231  A    between atoms: _572  and  _573
REMARK  232  A    between atoms: _572  and  _575
REMARK  233  A    between atoms: _575  and  _576
REMARK  234  A    between atoms: _576  and  _577
REMARK  235  A    between atoms: _577  and  _578
REMARK  236  A    between atoms: _587  and  _589
REMARK  237  A    between atoms: _589  and  _590
REMARK  238  A    between atoms: _589  and  _592
REMARK  239  A    between atoms: _592  and  _593
REMARK                            x       y       z     vdW  Elec       q    Type
REMARK                         _______ _______ _______ _____ _____    ______ ____
ROOT
ATOM      1  O   HOH     1      24.338  28.860  26.198  0.00  0.00    +0.000 OA
ENDROOT
TORSDOF 0
REMARK  Name = ../refined-set-2016/2aoc/2aoc_pocket.pdb
REMARK  239 active torsions:
REMARK  status: ('A' for Active; 'I' for Inactive)
REMARK    1  A    between atoms: _1  and  _3
REMARK    2  A    between atoms: _3  and  _4
REMARK    3  A    between atoms: _3  and  _6
REMARK    4  A    between atoms: _6  and  _7
REMARK    5  A    between atoms: _7  and  _8
REMARK    6  A    between atoms: _8  and  _9
REMARK    7  A    between atoms: _18  and  _20
REMARK    8  A    between atoms: _20  and  _21
REMARK    9  A    between atoms: _20  and  _23
REMARK   10  A    between atoms: _23  and  _24
REMARK   11  A    between atoms: _27  and  _29
REMARK   12  A    between atoms: _29  and  _30
REMARK   13  A    between atoms: _29  and  _32
REMARK   14  A    between atoms: _33  and  _34
REMARK   15  A    between atoms: _37  and  _39
REMARK   16  A    between atoms: _39  and  _40
REMARK   17  A    between atoms: _39  and  _42
REMARK   18  A    between atoms: _42  and  _43
REMARK   19  A    between atoms: _46  and  _48
REMARK   20  A    between atoms: _48  and  _49
REMARK   21  A    between atoms: _48  and  _51
REMARK   22  A    between atoms: _51  and  _52
REMARK   23  A    between atoms: _55  and  _57
REMARK   24  A    between atoms: _57  and  _58
REMARK   25  A    between atoms: _57  and  _60
REMARK   26  A    between atoms: _60  and  _61
REMARK   27  A    between atoms: _64  and  _66
REMARK   28  A    between atoms: _66  and  _67
REMARK   29  A    between atoms: _66  and  _69
REMARK   30  A    between atoms: _69  and  _70
REMARK   31  A    between atoms: _73  and  _75
REMARK   32  A    between atoms: _75  and  _76
REMARK   33  A    between atoms: _78  and  _80
REMARK   34  A    between atoms: _80  and  _81
REMARK   35  A    between atoms: _84  and  _86
REMARK   36  A    between atoms: _86  and  _87
REMARK   37  A    between atoms: _86  and  _89
REMARK   38  A    between atoms: _89  and  _90
REMARK   39  A    between atoms: _93  and  _95
REMARK   40  A    between atoms: _95  and  _96
REMARK   41  A    between atoms: _95  and  _98
REMARK   42  A    between atoms: _98  and  _99
REMARK   43  A    between atoms: _102  and  _104
REMARK   44  A    between atoms: _104  and  _105
REMARK   45  A    between atoms: _104  and  _107
REMARK   46  A    between atoms: _107  and  _108
REMARK   47  A    between atoms: _111  and  _113
REMARK   48  A    between atoms: _113  and  _114
REMARK   49  A    between atoms: _113  and  _116
REMARK   50  A    between atoms: _119  and  _121
REMARK   51  A    between atoms: _121  and  _122
REMARK   52  A    between atoms: _121  and  _124
REMARK   53  A    between atoms: _124  and  _125
REMARK   54  A    between atoms: _125  and  _126
REMARK   55  A    between atoms: _126  and  _127
REMARK   56  A    between atoms: _127  and  _128
REMARK   57  A    between atoms: _132  and  _134
REMARK   58  A    between atoms: _134  and  _135
REMARK   59  A    between atoms: _134  and  _137
REMARK   60  A    between atoms: _137  and  _138
REMARK   61  A    between atoms: _138  and  _139
REMARK   62  A    between atoms: _141  and  _143
REMARK   63  A    between atoms: _143  and  _144
REMARK   64  A    between atoms: _143  and  _146
REMARK   65  A    between atoms: _146  and  _147
REMARK   66  A    between atoms: _150  and  _152
REMARK   67  A    between atoms: _152  and  _153
REMARK   68  A    between atoms: _155  and  _157
REMARK   69  A    between atoms: _157  and  _158
REMARK   70  A    between atoms: _160  and  _162
REMARK   71  A    between atoms: _162  and  _163
REMARK   72  A    between atoms: _162  and  _165
REMARK   73  A    between atoms: _165  and  _166
REMARK   74  A    between atoms: _169  and  _171
REMARK   75  A    between atoms: _171  and  _172
REMARK   76  A    between atoms: _174  and  _176
REMARK   77  A    between atoms: _176  and  _177
REMARK   78  A    between atoms: _179  and  _181
REMARK   79  A    between atoms: _181  and  _182
REMARK   80  A    between atoms: _181  and  _184
REMARK   81  A    between atoms: _184  and  _185
REMARK   82  A    between atoms: _191  and  _193
REMARK   83  A    between atoms: _193  and  _194
REMARK   84  A    between atoms: _193  and  _196
REMARK   85  A    between atoms: _196  and  _197
REMARK   86  A    between atoms: _200  and  _202
REMARK   87  A    between atoms: _202  and  _203
REMARK   88  A    between atoms: _202  and  _205
REMARK   89  A    between atoms: _208  and  _210
REMARK   90  A    between atoms: _210  and  _211
REMARK   91  A    between atoms: _210  and  _213
REMARK   92  A    between atoms: _213  and  _214
REMARK   93  A    between atoms: _218  and  _219
REMARK   94  A    between atoms: _224  and  _226
REMARK   95  A    between atoms: _226  and  _227
REMARK   96  A    between atoms: _226  and  _229
REMARK   97  A    between atoms: _229  and  _230
REMARK   98  A    between atoms: _234  and  _235
REMARK   99  A    between atoms: _240  and  _242
REMARK  100  A    between atoms: _242  and  _243
REMARK  101  A    between atoms: _242  and  _245
REMARK  102  A    between atoms: _248  and  _250
REMARK  103  A    between atoms: _250  and  _251
REMARK  104  A    between atoms: _250  and  _253
REMARK  105  A    between atoms: _253  and  _254
REMARK  106  A    between atoms: _259  and  _261
REMARK  107  A    between atoms: _261  and  _262
REMARK  108  A    between atoms: _261  and  _264
REMARK  109  A    between atoms: _267  and  _269
REMARK  110  A    between atoms: _269  and  _270
REMARK  111  A    between atoms: _269  and  _272
REMARK  112  A    between atoms: _272  and  _273
REMARK  113  A    between atoms: _276  and  _278
REMARK  114  A    between atoms: _278  and  _279
REMARK  115  A    between atoms: _281  and  _283
REMARK  116  A    between atoms: _283  and  _284
REMARK  117  A    between atoms: _283  and  _286
REMARK  118  A    between atoms: _287  and  _288
REMARK  119  A    between atoms: _288  and  _289
REMARK  120  A    between atoms: _298  and  _300
REMARK  121  A    between atoms: _300  and  _301
REMARK  122  A    between atoms: _300  and  _303
REMARK  123  A    between atoms: _303  and  _304
REMARK  124  A    between atoms: _309  and  _311
REMARK  125  A    between atoms: _311  and  _312
REMARK  126  A    between atoms: _311  and  _314
REMARK  127  A    between atoms: _314  and  _315
REMARK  128  A    between atoms: _315  and  _316
REMARK  129  A    between atoms: _316  and  _317
REMARK  130  A    between atoms: _326  and  _328
REMARK  131  A    between atoms: _328  and  _329
REMARK  132  A    between atoms: _328  and  _331
REMARK  133  A    between atoms: _331  and  _332
REMARK  134  A    between atoms: _335  and  _337
REMARK  135  A    between atoms: _337  and  _338
REMARK  136  A    between atoms: _337  and  _340
REMARK  137  A    between atoms: _340  and  _341
REMARK  138  A    between atoms: _344  and  _346
REMARK  139  A    between atoms: _346  and  _347
REMARK  140  A    between atoms: _346  and  _349
REMARK  141  A    between atoms: _349  and  _350
REMARK  142  A    between atoms: _353  and  _355
REMARK  143  A    between atoms: _355  and  _356
REMARK  144  A    between atoms: _355  and  _358
REMARK  145  A    between atoms: _358  and  _359
REMARK  146  A    between atoms: _362  and  _364
REMARK  147  A    between atoms: _364  and  _365
REMARK  148  A    between atoms: _367  and  _369
REMARK  149  A    between atoms: _369  and  _370
REMARK  150  A    between atoms: _373  and  _375
REMARK  151  A    between atoms: _375  and  _376
REMARK  152  A    between atoms: _375  and  _378
REMARK  153  A    between atoms: _378  and  _379
REMARK  154  A    between atoms: _382  and  _384
REMARK  155  A    between atoms: _384  and  _385
REMARK  156  A    between atoms: _384  and  _387
REMARK  157  A    between atoms: _387  and  _388
REMARK  158  A    between atoms: _391  and  _393
REMARK  159  A    between atoms: _393  and  _394
REMARK  160  A    between atoms: _393  and  _396
REMARK  161  A    between atoms: _396  and  _397
REMARK  162  A    between atoms: _400  and  _402
REMARK  163  A    between atoms: _402  and  _403
REMARK  164  A    between atoms: _402  and  _405
REMARK  165  A    between atoms: _408  and  _410
REMARK  166  A    between atoms: _410  and  _411
REMARK  167  A    between atoms: _410  and  _413
REMARK  168  A    between atoms: _413  and  _414
REMARK  169  A    between atoms: _414  and  _415
REMARK  170  A    between atoms: _415  and  _416
REMARK  171  A    between atoms: _416  and  _417
REMARK  172  A    between atoms: _421  and  _423
REMARK  173  A    between atoms: _423  and  _424
REMARK  174  A    between atoms: _423  and  _426
REMARK  175  A    between atoms: _426  and  _427
REMARK  176  A    between atoms: _427  and  _428
REMARK  177  A    between atoms: _430  and  _432
REMARK  178  A    between atoms: _432  and  _433
REMARK  179  A    between atoms: _432  and  _435
REMARK  180  A    between atoms: _435  and  _436
REMARK  181  A    between atoms: _439  and  _441
REMARK  182  A    between atoms: _441  and  _442
REMARK  183  A    between atoms: _444  and  _446
REMARK  184  A    between atoms: _446  and  _447
REMARK  185  A    between atoms: _449  and  _451
REMARK  186  A    between atoms: _451  and  _452
REMARK  187  A    between atoms: _451  and  _454
REMARK  188  A    between atoms: _454  and  _455
REMARK  189  A    between atoms: _458  and  _460
REMARK  190  A    between atoms: _460  and  _461
REMARK  191  A    between atoms: _463  and  _465
REMARK  192  A    between atoms: _465  and  _466
REMARK  193  A    between atoms: _468  and  _470
REMARK  194  A    between atoms: _470  and  _471
REMARK  195  A    between atoms: _470  and  _473
REMARK  196  A    between atoms: _473  and  _474
REMARK  197  A    between atoms: _480  and  _482
REMARK  198  A    between atoms: _482  and  _483
REMARK  199  A    between atoms: _482  and  _485
REMARK  200  A    between atoms: _485  and  _486
REMARK  201  A    between atoms: _489  and  _491
REMARK  202  A    between atoms: _491  and  _492
REMARK  203  A    between atoms: _491  and  _494
REMARK  204  A    between atoms: _497  and  _499
REMARK  205  A    between atoms: _499  and  _500
REMARK  206  A    between atoms: _499  and  _502
REMARK  207  A    between atoms: _502  and  _503
REMARK  208  A    between atoms: _507  and  _508
REMARK  209  A    between atoms: _513  and  _515
REMARK  210  A    between atoms: _515  and  _516
REMARK  211  A    between atoms: _515  and  _518
REMARK  212  A    between atoms: _518  and  _519
REMARK  213  A    between atoms: _523  and  _524
REMARK  214  A    between atoms: _529  and  _531
REMARK  215  A    between atoms: _531  and  _532
REMARK  216  A    between atoms: _531  and  _534
REMARK  217  A    between atoms: _537  and  _539
REMARK  218  A    between atoms: _539  and  _540
REMARK  219  A    between atoms: _539  and  _542
REMARK  220  A    between atoms: _542  and  _543
REMARK  221  A    between atoms: _548  and  _550
REMARK  222  A    between atoms: _550  and  _551
REMARK  223  A    between atoms: _550  and  _553
REMARK  224  A    between atoms: _556  and  _558
REMARK  225  A    between atoms: _558  and  _559
REMARK  226  A    between atoms: _558  and  _561
REMARK  227  A    between atoms: _561  and  _562
REMARK  228  A    between atoms: _565  and  _567
REMARK  229  A    between atoms: _567  and  _568
REMARK  230  A    between atoms: _570  and  _572
REMARK  231  A    between atoms: _572  and  _573
REMARK  232  A    between atoms: _572  and  _575
REMARK  233  A    between atoms: _575  and  _576
REMARK  234  A    between atoms: _576  and  _577
REMARK  235  A    between atoms: _577  and  _578
REMARK  236  A    between atoms: _587  and  _589
REMARK  237  A    between atoms: _589  and  _590
REMARK  238  A    between atoms: _589  and  _592
REMARK  239  A    between atoms: _592  and  _593
REMARK                            x       y       z     vdW  Elec       q    Type
REMARK                         _______ _______ _______ _____ _____    ______ ____
ROOT
ATOM      1  O   HOH     1      25.661  26.091  25.216  0.00  0.00    +0.000 OA
ENDROOT
TORSDOF 0
REMARK  Name = ../refined-set-2016/2aoc/2aoc_pocket.pdb
REMARK  239 active torsions:
REMARK  status: ('A' for Active; 'I' for Inactive)
REMARK    1  A    between atoms: _1  and  _3
REMARK    2  A    between atoms: _3  and  _4
REMARK    3  A    between atoms: _3  and  _6
REMARK    4  A    between atoms: _6  and  _7
REMARK    5  A    between atoms: _7  and  _8
REMARK    6  A    between atoms: _8  and  _9
REMARK    7  A    between atoms: _18  and  _20
REMARK    8  A    between atoms: _20  and  _21
REMARK    9  A    between atoms: _20  and  _23
REMARK   10  A    between atoms: _23  and  _24
REMARK   11  A    between atoms: _27  and  _29
REMARK   12  A    between atoms: _29  and  _30
REMARK   13  A    between atoms: _29  and  _32
REMARK   14  A    between atoms: _33  and  _34
REMARK   15  A    between atoms: _37  and  _39
REMARK   16  A    between atoms: _39  and  _40
REMARK   17  A    between atoms: _39  and  _42
REMARK   18  A    between atoms: _42  and  _43
REMARK   19  A    between atoms: _46  and  _48
REMARK   20  A    between atoms: _48  and  _49
REMARK   21  A    between atoms: _48  and  _51
REMARK   22  A    between atoms: _51  and  _52
REMARK   23  A    between atoms: _55  and  _57
REMARK   24  A    between atoms: _57  and  _58
REMARK   25  A    between atoms: _57  and  _60
REMARK   26  A    between atoms: _60  and  _61
REMARK   27  A    between atoms: _64  and  _66
REMARK   28  A    between atoms: _66  and  _67
REMARK   29  A    between atoms: _66  and  _69
REMARK   30  A    between atoms: _69  and  _70
REMARK   31  A    between atoms: _73  and  _75
REMARK   32  A    between atoms: _75  and  _76
REMARK   33  A    between atoms: _78  and  _80
REMARK   34  A    between atoms: _80  and  _81
REMARK   35  A    between atoms: _84  and  _86
REMARK   36  A    between atoms: _86  and  _87
REMARK   37  A    between atoms: _86  and  _89
REMARK   38  A    between atoms: _89  and  _90
REMARK   39  A    between atoms: _93  and  _95
REMARK   40  A    between atoms: _95  and  _96
REMARK   41  A    between atoms: _95  and  _98
REMARK   42  A    between atoms: _98  and  _99
REMARK   43  A    between atoms: _102  and  _104
REMARK   44  A    between atoms: _104  and  _105
REMARK   45  A    between atoms: _104  and  _107
REMARK   46  A    between atoms: _107  and  _108
REMARK   47  A    between atoms: _111  and  _113
REMARK   48  A    between atoms: _113  and  _114
REMARK   49  A    between atoms: _113  and  _116
REMARK   50  A    between atoms: _119  and  _121
REMARK   51  A    between atoms: _121  and  _122
REMARK   52  A    between atoms: _121  and  _124
REMARK   53  A    between atoms: _124  and  _125
REMARK   54  A    between atoms: _125  and  _126
REMARK   55  A    between atoms: _126  and  _127
REMARK   56  A    between atoms: _127  and  _128
REMARK   57  A    between atoms: _132  and  _134
REMARK   58  A    between atoms: _134  and  _135
REMARK   59  A    between atoms: _134  and  _137
REMARK   60  A    between atoms: _137  and  _138
REMARK   61  A    between atoms: _138  and  _139
REMARK   62  A    between atoms: _141  and  _143
REMARK   63  A    between atoms: _143  and  _144
REMARK   64  A    between atoms: _143  and  _146
REMARK   65  A    between atoms: _146  and  _147
REMARK   66  A    between atoms: _150  and  _152
REMARK   67  A    between atoms: _152  and  _153
REMARK   68  A    between atoms: _155  and  _157
REMARK   69  A    between atoms: _157  and  _158
REMARK   70  A    between atoms: _160  and  _162
REMARK   71  A    between atoms: _162  and  _163
REMARK   72  A    between atoms: _162  and  _165
REMARK   73  A    between atoms: _165  and  _166
REMARK   74  A    between atoms: _169  and  _171
REMARK   75  A    between atoms: _171  and  _172
REMARK   76  A    between atoms: _174  and  _176
REMARK   77  A    between atoms: _176  and  _177
REMARK   78  A    between atoms: _179  and  _181
REMARK   79  A    between atoms: _181  and  _182
REMARK   80  A    between atoms: _181  and  _184
REMARK   81  A    between atoms: _184  and  _185
REMARK   82  A    between atoms: _191  and  _193
REMARK   83  A    between atoms: _193  and  _194
REMARK   84  A    between atoms: _193  and  _196
REMARK   85  A    between atoms: _196  and  _197
REMARK   86  A    between atoms: _200  and  _202
REMARK   87  A    between atoms: _202  and  _203
REMARK   88  A    between atoms: _202  and  _205
REMARK   89  A    between atoms: _208  and  _210
REMARK   90  A    between atoms: _210  and  _211
REMARK   91  A    between atoms: _210  and  _213
REMARK   92  A    between atoms: _213  and  _214
REMARK   93  A    between atoms: _218  and  _219
REMARK   94  A    between atoms: _224  and  _226
REMARK   95  A    between atoms: _226  and  _227
REMARK   96  A    between atoms: _226  and  _229
REMARK   97  A    between atoms: _229  and  _230
REMARK   98  A    between atoms: _234  and  _235
REMARK   99  A    between atoms: _240  and  _242
REMARK  100  A    between atoms: _242  and  _243
REMARK  101  A    between atoms: _242  and  _245
REMARK  102  A    between atoms: _248  and  _250
REMARK  103  A    between atoms: _250  and  _251
REMARK  104  A    between atoms: _250  and  _253
REMARK  105  A    between atoms: _253  and  _254
REMARK  106  A    between atoms: _259  and  _261
REMARK  107  A    between atoms: _261  and  _262
REMARK  108  A    between atoms: _261  and  _264
REMARK  109  A    between atoms: _267  and  _269
REMARK  110  A    between atoms: _269  and  _270
REMARK  111  A    between atoms: _269  and  _272
REMARK  112  A    between atoms: _272  and  _273
REMARK  113  A    between atoms: _276  and  _278
REMARK  114  A    between atoms: _278  and  _279
REMARK  115  A    between atoms: _281  and  _283
REMARK  116  A    between atoms: _283  and  _284
REMARK  117  A    between atoms: _283  and  _286
REMARK  118  A    between atoms: _287  and  _288
REMARK  119  A    between atoms: _288  and  _289
REMARK  120  A    between atoms: _298  and  _300
REMARK  121  A    between atoms: _300  and  _301
REMARK  122  A    between atoms: _300  and  _303
REMARK  123  A    between atoms: _303  and  _304
REMARK  124  A    between atoms: _309  and  _311
REMARK  125  A    between atoms: _311  and  _312
REMARK  126  A    between atoms: _311  and  _314
REMARK  127  A    between atoms: _314  and  _315
REMARK  128  A    between atoms: _315  and  _316
REMARK  129  A    between atoms: _316  and  _317
REMARK  130  A    between atoms: _326  and  _328
REMARK  131  A    between atoms: _328  and  _329
REMARK  132  A    between atoms: _328  and  _331
REMARK  133  A    between atoms: _331  and  _332
REMARK  134  A    between atoms: _335  and  _337
REMARK  135  A    between atoms: _337  and  _338
REMARK  136  A    between atoms: _337  and  _340
REMARK  137  A    between atoms: _340  and  _341
REMARK  138  A    between atoms: _344  and  _346
REMARK  139  A    between atoms: _346  and  _347
REMARK  140  A    between atoms: _346  and  _349
REMARK  141  A    between atoms: _349  and  _350
REMARK  142  A    between atoms: _353  and  _355
REMARK  143  A    between atoms: _355  and  _356
REMARK  144  A    between atoms: _355  and  _358
REMARK  145  A    between atoms: _358  and  _359
REMARK  146  A    between atoms: _362  and  _364
REMARK  147  A    between atoms: _364  and  _365
REMARK  148  A    between atoms: _367  and  _369
REMARK  149  A    between atoms: _369  and  _370
REMARK  150  A    between atoms: _373  and  _375
REMARK  151  A    between atoms: _375  and  _376
REMARK  152  A    between atoms: _375  and  _378
REMARK  153  A    between atoms: _378  and  _379
REMARK  154  A    between atoms: _382  and  _384
REMARK  155  A    between atoms: _384  and  _385
REMARK  156  A    between atoms: _384  and  _387
REMARK  157  A    between atoms: _387  and  _388
REMARK  158  A    between atoms: _391  and  _393
REMARK  159  A    between atoms: _393  and  _394
REMARK  160  A    between atoms: _393  and  _396
REMARK  161  A    between atoms: _396  and  _397
REMARK  162  A    between atoms: _400  and  _402
REMARK  163  A    between atoms: _402  and  _403
REMARK  164  A    between atoms: _402  and  _405
REMARK  165  A    between atoms: _408  and  _410
REMARK  166  A    between atoms: _410  and  _411
REMARK  167  A    between atoms: _410  and  _413
REMARK  168  A    between atoms: _413  and  _414
REMARK  169  A    between atoms: _414  and  _415
REMARK  170  A    between atoms: _415  and  _416
REMARK  171  A    between atoms: _416  and  _417
REMARK  172  A    between atoms: _421  and  _423
REMARK  173  A    between atoms: _423  and  _424
REMARK  174  A    between atoms: _423  and  _426
REMARK  175  A    between atoms: _426  and  _427
REMARK  176  A    between atoms: _427  and  _428
REMARK  177  A    between atoms: _430  and  _432
REMARK  178  A    between atoms: _432  and  _433
REMARK  179  A    between atoms: _432  and  _435
REMARK  180  A    between atoms: _435  and  _436
REMARK  181  A    between atoms: _439  and  _441
REMARK  182  A    between atoms: _441  and  _442
REMARK  183  A    between atoms: _444  and  _446
REMARK  184  A    between atoms: _446  and  _447
REMARK  185  A    between atoms: _449  and  _451
REMARK  186  A    between atoms: _451  and  _452
REMARK  187  A    between atoms: _451  and  _454
REMARK  188  A    between atoms: _454  and  _455
REMARK  189  A    between atoms: _458  and  _460
REMARK  190  A    between atoms: _460  and  _461
REMARK  191  A    between atoms: _463  and  _465
REMARK  192  A    between atoms: _465  and  _466
REMARK  193  A    between atoms: _468  and  _470
REMARK  194  A    between atoms: _470  and  _471
REMARK  195  A    between atoms: _470  and  _473
REMARK  196  A    between atoms: _473  and  _474
REMARK  197  A    between atoms: _480  and  _482
REMARK  198  A    between atoms: _482  and  _483
REMARK  199  A    between atoms: _482  and  _485
REMARK  200  A    between atoms: _485  and  _486
REMARK  201  A    between atoms: _489  and  _491
REMARK  202  A    between atoms: _491  and  _492
REMARK  203  A    between atoms: _491  and  _494
REMARK  204  A    between atoms: _497  and  _499
REMARK  205  A    between atoms: _499  and  _500
REMARK  206  A    between atoms: _499  and  _502
REMARK  207  A    between atoms: _502  and  _503
REMARK  208  A    between atoms: _507  and  _508
REMARK  209  A    between atoms: _513  and  _515
REMARK  210  A    between atoms: _515  and  _516
REMARK  211  A    between atoms: _515  and  _518
REMARK  212  A    between atoms: _518  and  _519
REMARK  213  A    between atoms: _523  and  _524
REMARK  214  A    between atoms: _529  and  _531
REMARK  215  A    between atoms: _531  and  _532
REMARK  216  A    between atoms: _531  and  _534
REMARK  217  A    between atoms: _537  and  _539
REMARK  218  A    between atoms: _539  and  _540
REMARK  219  A    between atoms: _539  and  _542
REMARK  220  A    between atoms: _542  and  _543
REMARK  221  A    between atoms: _548  and  _550
REMARK  222  A    between atoms: _550  and  _551
REMARK  223  A    between atoms: _550  and  _553
REMARK  224  A    between atoms: _556  and  _558
REMARK  225  A    between atoms: _558  and  _559
REMARK  226  A    between atoms: _558  and  _561
REMARK  227  A    between atoms: _561  and  _562
REMARK  228  A    between atoms: _565  and  _567
REMARK  229  A    between atoms: _567  and  _568
REMARK  230  A    between atoms: _570  and  _572
REMARK  231  A    between atoms: _572  and  _573
REMARK  232  A    between atoms: _572  and  _575
REMARK  233  A    between atoms: _575  and  _576
REMARK  234  A    between atoms: _576  and  _577
REMARK  235  A    between atoms: _577  and  _578
REMARK  236  A    between atoms: _587  and  _589
REMARK  237  A    between atoms: _589  and  _590
REMARK  238  A    between atoms: _589  and  _592
REMARK  239  A    between atoms: _592  and  _593
REMARK                            x       y       z     vdW  Elec       q    Type
REMARK                         _______ _______ _______ _____ _____    ______ ____
ROOT
ATOM      1  O   HOH     1       7.051  10.151  19.423  0.00  0.00    +0.000 OA
ENDROOT
TORSDOF 0
REMARK  Name = ../refined-set-2016/2aoc/2aoc_pocket.pdb
REMARK  239 active torsions:
REMARK  status: ('A' for Active; 'I' for Inactive)
REMARK    1  A    between atoms: _1  and  _3
REMARK    2  A    between atoms: _3  and  _4
REMARK    3  A    between atoms: _3  and  _6
REMARK    4  A    between atoms: _6  and  _7
REMARK    5  A    between atoms: _7  and  _8
REMARK    6  A    between atoms: _8  and  _9
REMARK    7  A    between atoms: _18  and  _20
REMARK    8  A    between atoms: _20  and  _21
REMARK    9  A    between atoms: _20  and  _23
REMARK   10  A    between atoms: _23  and  _24
REMARK   11  A    between atoms: _27  and  _29
REMARK   12  A    between atoms: _29  and  _30
REMARK   13  A    between atoms: _29  and  _32
REMARK   14  A    between atoms: _33  and  _34
REMARK   15  A    between atoms: _37  and  _39
REMARK   16  A    between atoms: _39  and  _40
REMARK   17  A    between atoms: _39  and  _42
REMARK   18  A    between atoms: _42  and  _43
REMARK   19  A    between atoms: _46  and  _48
REMARK   20  A    between atoms: _48  and  _49
REMARK   21  A    between atoms: _48  and  _51
REMARK   22  A    between atoms: _51  and  _52
REMARK   23  A    between atoms: _55  and  _57
REMARK   24  A    between atoms: _57  and  _58
REMARK   25  A    between atoms: _57  and  _60
REMARK   26  A    between atoms: _60  and  _61
REMARK   27  A    between atoms: _64  and  _66
REMARK   28  A    between atoms: _66  and  _67
REMARK   29  A    between atoms: _66  and  _69
REMARK   30  A    between atoms: _69  and  _70
REMARK   31  A    between atoms: _73  and  _75
REMARK   32  A    between atoms: _75  and  _76
REMARK   33  A    between atoms: _78  and  _80
REMARK   34  A    between atoms: _80  and  _81
REMARK   35  A    between atoms: _84  and  _86
REMARK   36  A    between atoms: _86  and  _87
REMARK   37  A    between atoms: _86  and  _89
REMARK   38  A    between atoms: _89  and  _90
REMARK   39  A    between atoms: _93  and  _95
REMARK   40  A    between atoms: _95  and  _96
REMARK   41  A    between atoms: _95  and  _98
REMARK   42  A    between atoms: _98  and  _99
REMARK   43  A    between atoms: _102  and  _104
REMARK   44  A    between atoms: _104  and  _105
REMARK   45  A    between atoms: _104  and  _107
REMARK   46  A    between atoms: _107  and  _108
REMARK   47  A    between atoms: _111  and  _113
REMARK   48  A    between atoms: _113  and  _114
REMARK   49  A    between atoms: _113  and  _116
REMARK   50  A    between atoms: _119  and  _121
REMARK   51  A    between atoms: _121  and  _122
REMARK   52  A    between atoms: _121  and  _124
REMARK   53  A    between atoms: _124  and  _125
REMARK   54  A    between atoms: _125  and  _126
REMARK   55  A    between atoms: _126  and  _127
REMARK   56  A    between atoms: _127  and  _128
REMARK   57  A    between atoms: _132  and  _134
REMARK   58  A    between atoms: _134  and  _135
REMARK   59  A    between atoms: _134  and  _137
REMARK   60  A    between atoms: _137  and  _138
REMARK   61  A    between atoms: _138  and  _139
REMARK   62  A    between atoms: _141  and  _143
REMARK   63  A    between atoms: _143  and  _144
REMARK   64  A    between atoms: _143  and  _146
REMARK   65  A    between atoms: _146  and  _147
REMARK   66  A    between atoms: _150  and  _152
REMARK   67  A    between atoms: _152  and  _153
REMARK   68  A    between atoms: _155  and  _157
REMARK   69  A    between atoms: _157  and  _158
REMARK   70  A    between atoms: _160  and  _162
REMARK   71  A    between atoms: _162  and  _163
REMARK   72  A    between atoms: _162  and  _165
REMARK   73  A    between atoms: _165  and  _166
REMARK   74  A    between atoms: _169  and  _171
REMARK   75  A    between atoms: _171  and  _172
REMARK   76  A    between atoms: _174  and  _176
REMARK   77  A    between atoms: _176  and  _177
REMARK   78  A    between atoms: _179  and  _181
REMARK   79  A    between atoms: _181  and  _182
REMARK   80  A    between atoms: _181  and  _184
REMARK   81  A    between atoms: _184  and  _185
REMARK   82  A    between atoms: _191  and  _193
REMARK   83  A    between atoms: _193  and  _194
REMARK   84  A    between atoms: _193  and  _196
REMARK   85  A    between atoms: _196  and  _197
REMARK   86  A    between atoms: _200  and  _202
REMARK   87  A    between atoms: _202  and  _203
REMARK   88  A    between atoms: _202  and  _205
REMARK   89  A    between atoms: _208  and  _210
REMARK   90  A    between atoms: _210  and  _211
REMARK   91  A    between atoms: _210  and  _213
REMARK   92  A    between atoms: _213  and  _214
REMARK   93  A    between atoms: _218  and  _219
REMARK   94  A    between atoms: _224  and  _226
REMARK   95  A    between atoms: _226  and  _227
REMARK   96  A    between atoms: _226  and  _229
REMARK   97  A    between atoms: _229  and  _230
REMARK   98  A    between atoms: _234  and  _235
REMARK   99  A    between atoms: _240  and  _242
REMARK  100  A    between atoms: _242  and  _243
REMARK  101  A    between atoms: _242  and  _245
REMARK  102  A    between atoms: _248  and  _250
REMARK  103  A    between atoms: _250  and  _251
REMARK  104  A    between atoms: _250  and  _253
REMARK  105  A    between atoms: _253  and  _254
REMARK  106  A    between atoms: _259  and  _261
REMARK  107  A    between atoms: _261  and  _262
REMARK  108  A    between atoms: _261  and  _264
REMARK  109  A    between atoms: _267  and  _269
REMARK  110  A    between atoms: _269  and  _270
REMARK  111  A    between atoms: _269  and  _272
REMARK  112  A    between atoms: _272  and  _273
REMARK  113  A    between atoms: _276  and  _278
REMARK  114  A    between atoms: _278  and  _279
REMARK  115  A    between atoms: _281  and  _283
REMARK  116  A    between atoms: _283  and  _284
REMARK  117  A    between atoms: _283  and  _286
REMARK  118  A    between atoms: _287  and  _288
REMARK  119  A    between atoms: _288  and  _289
REMARK  120  A    between atoms: _298  and  _300
REMARK  121  A    between atoms: _300  and  _301
REMARK  122  A    between atoms: _300  and  _303
REMARK  123  A    between atoms: _303  and  _304
REMARK  124  A    between atoms: _309  and  _311
REMARK  125  A    between atoms: _311  and  _312
REMARK  126  A    between atoms: _311  and  _314
REMARK  127  A    between atoms: _314  and  _315
REMARK  128  A    between atoms: _315  and  _316
REMARK  129  A    between atoms: _316  and  _317
REMARK  130  A    between atoms: _326  and  _328
REMARK  131  A    between atoms: _328  and  _329
REMARK  132  A    between atoms: _328  and  _331
REMARK  133  A    between atoms: _331  and  _332
REMARK  134  A    between atoms: _335  and  _337
REMARK  135  A    between atoms: _337  and  _338
REMARK  136  A    between atoms: _337  and  _340
REMARK  137  A    between atoms: _340  and  _341
REMARK  138  A    between atoms: _344  and  _346
REMARK  139  A    between atoms: _346  and  _347
REMARK  140  A    between atoms: _346  and  _349
REMARK  141  A    between atoms: _349  and  _350
REMARK  142  A    between atoms: _353  and  _355
REMARK  143  A    between atoms: _355  and  _356
REMARK  144  A    between atoms: _355  and  _358
REMARK  145  A    between atoms: _358  and  _359
REMARK  146  A    between atoms: _362  and  _364
REMARK  147  A    between atoms: _364  and  _365
REMARK  148  A    between atoms: _367  and  _369
REMARK  149  A    between atoms: _369  and  _370
REMARK  150  A    between atoms: _373  and  _375
REMARK  151  A    between atoms: _375  and  _376
REMARK  152  A    between atoms: _375  and  _378
REMARK  153  A    between atoms: _378  and  _379
REMARK  154  A    between atoms: _382  and  _384
REMARK  155  A    between atoms: _384  and  _385
REMARK  156  A    between atoms: _384  and  _387
REMARK  157  A    between atoms: _387  and  _388
REMARK  158  A    between atoms: _391  and  _393
REMARK  159  A    between atoms: _393  and  _394
REMARK  160  A    between atoms: _393  and  _396
REMARK  161  A    between atoms: _396  and  _397
REMARK  162  A    between atoms: _400  and  _402
REMARK  163  A    between atoms: _402  and  _403
REMARK  164  A    between atoms: _402  and  _405
REMARK  165  A    between atoms: _408  and  _410
REMARK  166  A    between atoms: _410  and  _411
REMARK  167  A    between atoms: _410  and  _413
REMARK  168  A    between atoms: _413  and  _414
REMARK  169  A    between atoms: _414  and  _415
REMARK  170  A    between atoms: _415  and  _416
REMARK  171  A    between atoms: _416  and  _417
REMARK  172  A    between atoms: _421  and  _423
REMARK  173  A    between atoms: _423  and  _424
REMARK  174  A    between atoms: _423  and  _426
REMARK  175  A    between atoms: _426  and  _427
REMARK  176  A    between atoms: _427  and  _428
REMARK  177  A    between atoms: _430  and  _432
REMARK  178  A    between atoms: _432  and  _433
REMARK  179  A    between atoms: _432  and  _435
REMARK  180  A    between atoms: _435  and  _436
REMARK  181  A    between atoms: _439  and  _441
REMARK  182  A    between atoms: _441  and  _442
REMARK  183  A    between atoms: _444  and  _446
REMARK  184  A    between atoms: _446  and  _447
REMARK  185  A    between atoms: _449  and  _451
REMARK  186  A    between atoms: _451  and  _452
REMARK  187  A    between atoms: _451  and  _454
REMARK  188  A    between atoms: _454  and  _455
REMARK  189  A    between atoms: _458  and  _460
REMARK  190  A    between atoms: _460  and  _461
REMARK  191  A    between atoms: _463  and  _465
REMARK  192  A    between atoms: _465  and  _466
REMARK  193  A    between atoms: _468  and  _470
REMARK  194  A    between atoms: _470  and  _471
REMARK  195  A    between atoms: _470  and  _473
REMARK  196  A    between atoms: _473  and  _474
REMARK  197  A    between atoms: _480  and  _482
REMARK  198  A    between atoms: _482  and  _483
REMARK  199  A    between atoms: _482  and  _485
REMARK  200  A    between atoms: _485  and  _486
REMARK  201  A    between atoms: _489  and  _491
REMARK  202  A    between atoms: _491  and  _492
REMARK  203  A    between atoms: _491  and  _494
REMARK  204  A    between atoms: _497  and  _499
REMARK  205  A    between atoms: _499  and  _500
REMARK  206  A    between atoms: _499  and  _502
REMARK  207  A    between atoms: _502  and  _503
REMARK  208  A    between atoms: _507  and  _508
REMARK  209  A    between atoms: _513  and  _515
REMARK  210  A    between atoms: _515  and  _516
REMARK  211  A    between atoms: _515  and  _518
REMARK  212  A    between atoms: _518  and  _519
REMARK  213  A    between atoms: _523  and  _524
REMARK  214  A    between atoms: _529  and  _531
REMARK  215  A    between atoms: _531  and  _532
REMARK  216  A    between atoms: _531  and  _534
REMARK  217  A    between atoms: _537  and  _539
REMARK  218  A    between atoms: _539  and  _540
REMARK  219  A    between atoms: _539  and  _542
REMARK  220  A    between atoms: _542  and  _543
REMARK  221  A    between atoms: _548  and  _550
REMARK  222  A    between atoms: _550  and  _551
REMARK  223  A    between atoms: _550  and  _553
REMARK  224  A    between atoms: _556  and  _558
REMARK  225  A    between atoms: _558  and  _559
REMARK  226  A    between atoms: _558  and  _561
REMARK  227  A    between atoms: _561  and  _562
REMARK  228  A    between atoms: _565  and  _567
REMARK  229  A    between atoms: _567  and  _568
REMARK  230  A    between atoms: _570  and  _572
REMARK  231  A    between atoms: _572  and  _573
REMARK  232  A    between atoms: _572  and  _575
REMARK  233  A    between atoms: _575  and  _576
REMARK  234  A    between atoms: _576  and  _577
REMARK  235  A    between atoms: _577  and  _578
REMARK  236  A    between atoms: _587  and  _589
REMARK  237  A    between atoms: _589  and  _590
REMARK  238  A    between atoms: _589  and  _592
REMARK  239  A    between atoms: _592  and  _593
REMARK                            x       y       z     vdW  Elec       q    Type
REMARK                         _______ _______ _______ _____ _____    ______ ____
ROOT
ATOM      1  O   HOH     1      11.970  15.088   9.260  0.00  0.00    +0.000 OA
ENDROOT
TORSDOF 0
REMARK  Name = ../refined-set-2016/2aoc/2aoc_pocket.pdb
REMARK  239 active torsions:
REMARK  status: ('A' for Active; 'I' for Inactive)
REMARK    1  A    between atoms: _1  and  _3
REMARK    2  A    between atoms: _3  and  _4
REMARK    3  A    between atoms: _3  and  _6
REMARK    4  A    between atoms: _6  and  _7
REMARK    5  A    between atoms: _7  and  _8
REMARK    6  A    between atoms: _8  and  _9
REMARK    7  A    between atoms: _18  and  _20
REMARK    8  A    between atoms: _20  and  _21
REMARK    9  A    between atoms: _20  and  _23
REMARK   10  A    between atoms: _23  and  _24
REMARK   11  A    between atoms: _27  and  _29
REMARK   12  A    between atoms: _29  and  _30
REMARK   13  A    between atoms: _29  and  _32
REMARK   14  A    between atoms: _33  and  _34
REMARK   15  A    between atoms: _37  and  _39
REMARK   16  A    between atoms: _39  and  _40
REMARK   17  A    between atoms: _39  and  _42
REMARK   18  A    between atoms: _42  and  _43
REMARK   19  A    between atoms: _46  and  _48
REMARK   20  A    between atoms: _48  and  _49
REMARK   21  A    between atoms: _48  and  _51
REMARK   22  A    between atoms: _51  and  _52
REMARK   23  A    between atoms: _55  and  _57
REMARK   24  A    between atoms: _57  and  _58
REMARK   25  A    between atoms: _57  and  _60
REMARK   26  A    between atoms: _60  and  _61
REMARK   27  A    between atoms: _64  and  _66
REMARK   28  A    between atoms: _66  and  _67
REMARK   29  A    between atoms: _66  and  _69
REMARK   30  A    between atoms: _69  and  _70
REMARK   31  A    between atoms: _73  and  _75
REMARK   32  A    between atoms: _75  and  _76
REMARK   33  A    between atoms: _78  and  _80
REMARK   34  A    between atoms: _80  and  _81
REMARK   35  A    between atoms: _84  and  _86
REMARK   36  A    between atoms: _86  and  _87
REMARK   37  A    between atoms: _86  and  _89
REMARK   38  A    between atoms: _89  and  _90
REMARK   39  A    between atoms: _93  and  _95
REMARK   40  A    between atoms: _95  and  _96
REMARK   41  A    between atoms: _95  and  _98
REMARK   42  A    between atoms: _98  and  _99
REMARK   43  A    between atoms: _102  and  _104
REMARK   44  A    between atoms: _104  and  _105
REMARK   45  A    between atoms: _104  and  _107
REMARK   46  A    between atoms: _107  and  _108
REMARK   47  A    between atoms: _111  and  _113
REMARK   48  A    between atoms: _113  and  _114
REMARK   49  A    between atoms: _113  and  _116
REMARK   50  A    between atoms: _119  and  _121
REMARK   51  A    between atoms: _121  and  _122
REMARK   52  A    between atoms: _121  and  _124
REMARK   53  A    between atoms: _124  and  _125
REMARK   54  A    between atoms: _125  and  _126
REMARK   55  A    between atoms: _126  and  _127
REMARK   56  A    between atoms: _127  and  _128
REMARK   57  A    between atoms: _132  and  _134
REMARK   58  A    between atoms: _134  and  _135
REMARK   59  A    between atoms: _134  and  _137
REMARK   60  A    between atoms: _137  and  _138
REMARK   61  A    between atoms: _138  and  _139
REMARK   62  A    between atoms: _141  and  _143
REMARK   63  A    between atoms: _143  and  _144
REMARK   64  A    between atoms: _143  and  _146
REMARK   65  A    between atoms: _146  and  _147
REMARK   66  A    between atoms: _150  and  _152
REMARK   67  A    between atoms: _152  and  _153
REMARK   68  A    between atoms: _155  and  _157
REMARK   69  A    between atoms: _157  and  _158
REMARK   70  A    between atoms: _160  and  _162
REMARK   71  A    between atoms: _162  and  _163
REMARK   72  A    between atoms: _162  and  _165
REMARK   73  A    between atoms: _165  and  _166
REMARK   74  A    between atoms: _169  and  _171
REMARK   75  A    between atoms: _171  and  _172
REMARK   76  A    between atoms: _174  and  _176
REMARK   77  A    between atoms: _176  and  _177
REMARK   78  A    between atoms: _179  and  _181
REMARK   79  A    between atoms: _181  and  _182
REMARK   80  A    between atoms: _181  and  _184
REMARK   81  A    between atoms: _184  and  _185
REMARK   82  A    between atoms: _191  and  _193
REMARK   83  A    between atoms: _193  and  _194
REMARK   84  A    between atoms: _193  and  _196
REMARK   85  A    between atoms: _196  and  _197
REMARK   86  A    between atoms: _200  and  _202
REMARK   87  A    between atoms: _202  and  _203
REMARK   88  A    between atoms: _202  and  _205
REMARK   89  A    between atoms: _208  and  _210
REMARK   90  A    between atoms: _210  and  _211
REMARK   91  A    between atoms: _210  and  _213
REMARK   92  A    between atoms: _213  and  _214
REMARK   93  A    between atoms: _218  and  _219
REMARK   94  A    between atoms: _224  and  _226
REMARK   95  A    between atoms: _226  and  _227
REMARK   96  A    between atoms: _226  and  _229
REMARK   97  A    between atoms: _229  and  _230
REMARK   98  A    between atoms: _234  and  _235
REMARK   99  A    between atoms: _240  and  _242
REMARK  100  A    between atoms: _242  and  _243
REMARK  101  A    between atoms: _242  and  _245
REMARK  102  A    between atoms: _248  and  _250
REMARK  103  A    between atoms: _250  and  _251
REMARK  104  A    between atoms: _250  and  _253
REMARK  105  A    between atoms: _253  and  _254
REMARK  106  A    between atoms: _259  and  _261
REMARK  107  A    between atoms: _261  and  _262
REMARK  108  A    between atoms: _261  and  _264
REMARK  109  A    between atoms: _267  and  _269
REMARK  110  A    between atoms: _269  and  _270
REMARK  111  A    between atoms: _269  and  _272
REMARK  112  A    between atoms: _272  and  _273
REMARK  113  A    between atoms: _276  and  _278
REMARK  114  A    between atoms: _278  and  _279
REMARK  115  A    between atoms: _281  and  _283
REMARK  116  A    between atoms: _283  and  _284
REMARK  117  A    between atoms: _283  and  _286
REMARK  118  A    between atoms: _287  and  _288
REMARK  119  A    between atoms: _288  and  _289
REMARK  120  A    between atoms: _298  and  _300
REMARK  121  A    between atoms: _300  and  _301
REMARK  122  A    between atoms: _300  and  _303
REMARK  123  A    between atoms: _303  and  _304
REMARK  124  A    between atoms: _309  and  _311
REMARK  125  A    between atoms: _311  and  _312
REMARK  126  A    between atoms: _311  and  _314
REMARK  127  A    between atoms: _314  and  _315
REMARK  128  A    between atoms: _315  and  _316
REMARK  129  A    between atoms: _316  and  _317
REMARK  130  A    between atoms: _326  and  _328
REMARK  131  A    between atoms: _328  and  _329
REMARK  132  A    between atoms: _328  and  _331
REMARK  133  A    between atoms: _331  and  _332
REMARK  134  A    between atoms: _335  and  _337
REMARK  135  A    between atoms: _337  and  _338
REMARK  136  A    between atoms: _337  and  _340
REMARK  137  A    between atoms: _340  and  _341
REMARK  138  A    between atoms: _344  and  _346
REMARK  139  A    between atoms: _346  and  _347
REMARK  140  A    between atoms: _346  and  _349
REMARK  141  A    between atoms: _349  and  _350
REMARK  142  A    between atoms: _353  and  _355
REMARK  143  A    between atoms: _355  and  _356
REMARK  144  A    between atoms: _355  and  _358
REMARK  145  A    between atoms: _358  and  _359
REMARK  146  A    between atoms: _362  and  _364
REMARK  147  A    between atoms: _364  and  _365
REMARK  148  A    between atoms: _367  and  _369
REMARK  149  A    between atoms: _369  and  _370
REMARK  150  A    between atoms: _373  and  _375
REMARK  151  A    between atoms: _375  and  _376
REMARK  152  A    between atoms: _375  and  _378
REMARK  153  A    between atoms: _378  and  _379
REMARK  154  A    between atoms: _382  and  _384
REMARK  155  A    between atoms: _384  and  _385
REMARK  156  A    between atoms: _384  and  _387
REMARK  157  A    between atoms: _387  and  _388
REMARK  158  A    between atoms: _391  and  _393
REMARK  159  A    between atoms: _393  and  _394
REMARK  160  A    between atoms: _393  and  _396
REMARK  161  A    between atoms: _396  and  _397
REMARK  162  A    between atoms: _400  and  _402
REMARK  163  A    between atoms: _402  and  _403
REMARK  164  A    between atoms: _402  and  _405
REMARK  165  A    between atoms: _408  and  _410
REMARK  166  A    between atoms: _410  and  _411
REMARK  167  A    between atoms: _410  and  _413
REMARK  168  A    between atoms: _413  and  _414
REMARK  169  A    between atoms: _414  and  _415
REMARK  170  A    between atoms: _415  and  _416
REMARK  171  A    between atoms: _416  and  _417
REMARK  172  A    between atoms: _421  and  _423
REMARK  173  A    between atoms: _423  and  _424
REMARK  174  A    between atoms: _423  and  _426
REMARK  175  A    between atoms: _426  and  _427
REMARK  176  A    between atoms: _427  and  _428
REMARK  177  A    between atoms: _430  and  _432
REMARK  178  A    between atoms: _432  and  _433
REMARK  179  A    between atoms: _432  and  _435
REMARK  180  A    between atoms: _435  and  _436
REMARK  181  A    between atoms: _439  and  _441
REMARK  182  A    between atoms: _441  and  _442
REMARK  183  A    between atoms: _444  and  _446
REMARK  184  A    between atoms: _446  and  _447
REMARK  185  A    between atoms: _449  and  _451
REMARK  186  A    between atoms: _451  and  _452
REMARK  187  A    between atoms: _451  and  _454
REMARK  188  A    between atoms: _454  and  _455
REMARK  189  A    between atoms: _458  and  _460
REMARK  190  A    between atoms: _460  and  _461
REMARK  191  A    between atoms: _463  and  _465
REMARK  192  A    between atoms: _465  and  _466
REMARK  193  A    between atoms: _468  and  _470
REMARK  194  A    between atoms: _470  and  _471
REMARK  195  A    between atoms: _470  and  _473
REMARK  196  A    between atoms: _473  and  _474
REMARK  197  A    between atoms: _480  and  _482
REMARK  198  A    between atoms: _482  and  _483
REMARK  199  A    between atoms: _482  and  _485
REMARK  200  A    between atoms: _485  and  _486
REMARK  201  A    between atoms: _489  and  _491
REMARK  202  A    between atoms: _491  and  _492
REMARK  203  A    between atoms: _491  and  _494
REMARK  204  A    between atoms: _497  and  _499
REMARK  205  A    between atoms: _499  and  _500
REMARK  206  A    between atoms: _499  and  _502
REMARK  207  A    between atoms: _502  and  _503
REMARK  208  A    between atoms: _507  and  _508
REMARK  209  A    between atoms: _513  and  _515
REMARK  210  A    between atoms: _515  and  _516
REMARK  211  A    between atoms: _515  and  _518
REMARK  212  A    between atoms: _518  and  _519
REMARK  213  A    between atoms: _523  and  _524
REMARK  214  A    between atoms: _529  and  _531
REMARK  215  A    between atoms: _531  and  _532
REMARK  216  A    between atoms: _531  and  _534
REMARK  217  A    between atoms: _537  and  _539
REMARK  218  A    between atoms: _539  and  _540
REMARK  219  A    between atoms: _539  and  _542
REMARK  220  A    between atoms: _542  and  _543
REMARK  221  A    between atoms: _548  and  _550
REMARK  222  A    between atoms: _550  and  _551
REMARK  223  A    between atoms: _550  and  _553
REMARK  224  A    between atoms: _556  and  _558
REMARK  225  A    between atoms: _558  and  _559
REMARK  226  A    between atoms: _558  and  _561
REMARK  227  A    between atoms: _561  and  _562
REMARK  228  A    between atoms: _565  and  _567
REMARK  229  A    between atoms: _567  and  _568
REMARK  230  A    between atoms: _570  and  _572
REMARK  231  A    between atoms: _572  and  _573
REMARK  232  A    between atoms: _572  and  _575
REMARK  233  A    between atoms: _575  and  _576
REMARK  234  A    between atoms: _576  and  _577
REMARK  235  A    between atoms: _577  and  _578
REMARK  236  A    between atoms: _587  and  _589
REMARK  237  A    between atoms: _589  and  _590
REMARK  238  A    between atoms: _589  and  _592
REMARK  239  A    between atoms: _592  and  _593
REMARK                            x       y       z     vdW  Elec       q    Type
REMARK                         _______ _______ _______ _____ _____    ______ ____
ROOT
ATOM      1  O   HOH     1      20.391  25.123  27.371  0.00  0.00    +0.000 OA
ENDROOT
TORSDOF 0
REMARK  Name = ../refined-set-2016/2aoc/2aoc_pocket.pdb
REMARK  239 active torsions:
REMARK  status: ('A' for Active; 'I' for Inactive)
REMARK    1  A    between atoms: _1  and  _3
REMARK    2  A    between atoms: _3  and  _4
REMARK    3  A    between atoms: _3  and  _6
REMARK    4  A    between atoms: _6  and  _7
REMARK    5  A    between atoms: _7  and  _8
REMARK    6  A    between atoms: _8  and  _9
REMARK    7  A    between atoms: _18  and  _20
REMARK    8  A    between atoms: _20  and  _21
REMARK    9  A    between atoms: _20  and  _23
REMARK   10  A    between atoms: _23  and  _24
REMARK   11  A    between atoms: _27  and  _29
REMARK   12  A    between atoms: _29  and  _30
REMARK   13  A    between atoms: _29  and  _32
REMARK   14  A    between atoms: _33  and  _34
REMARK   15  A    between atoms: _37  and  _39
REMARK   16  A    between atoms: _39  and  _40
REMARK   17  A    between atoms: _39  and  _42
REMARK   18  A    between atoms: _42  and  _43
REMARK   19  A    between atoms: _46  and  _48
REMARK   20  A    between atoms: _48  and  _49
REMARK   21  A    between atoms: _48  and  _51
REMARK   22  A    between atoms: _51  and  _52
REMARK   23  A    between atoms: _55  and  _57
REMARK   24  A    between atoms: _57  and  _58
REMARK   25  A    between atoms: _57  and  _60
REMARK   26  A    between atoms: _60  and  _61
REMARK   27  A    between atoms: _64  and  _66
REMARK   28  A    between atoms: _66  and  _67
REMARK   29  A    between atoms: _66  and  _69
REMARK   30  A    between atoms: _69  and  _70
REMARK   31  A    between atoms: _73  and  _75
REMARK   32  A    between atoms: _75  and  _76
REMARK   33  A    between atoms: _78  and  _80
REMARK   34  A    between atoms: _80  and  _81
REMARK   35  A    between atoms: _84  and  _86
REMARK   36  A    between atoms: _86  and  _87
REMARK   37  A    between atoms: _86  and  _89
REMARK   38  A    between atoms: _89  and  _90
REMARK   39  A    between atoms: _93  and  _95
REMARK   40  A    between atoms: _95  and  _96
REMARK   41  A    between atoms: _95  and  _98
REMARK   42  A    between atoms: _98  and  _99
REMARK   43  A    between atoms: _102  and  _104
REMARK   44  A    between atoms: _104  and  _105
REMARK   45  A    between atoms: _104  and  _107
REMARK   46  A    between atoms: _107  and  _108
REMARK   47  A    between atoms: _111  and  _113
REMARK   48  A    between atoms: _113  and  _114
REMARK   49  A    between atoms: _113  and  _116
REMARK   50  A    between atoms: _119  and  _121
REMARK   51  A    between atoms: _121  and  _122
REMARK   52  A    between atoms: _121  and  _124
REMARK   53  A    between atoms: _124  and  _125
REMARK   54  A    between atoms: _125  and  _126
REMARK   55  A    between atoms: _126  and  _127
REMARK   56  A    between atoms: _127  and  _128
REMARK   57  A    between atoms: _132  and  _134
REMARK   58  A    between atoms: _134  and  _135
REMARK   59  A    between atoms: _134  and  _137
REMARK   60  A    between atoms: _137  and  _138
REMARK   61  A    between atoms: _138  and  _139
REMARK   62  A    between atoms: _141  and  _143
REMARK   63  A    between atoms: _143  and  _144
REMARK   64  A    between atoms: _143  and  _146
REMARK   65  A    between atoms: _146  and  _147
REMARK   66  A    between atoms: _150  and  _152
REMARK   67  A    between atoms: _152  and  _153
REMARK   68  A    between atoms: _155  and  _157
REMARK   69  A    between atoms: _157  and  _158
REMARK   70  A    between atoms: _160  and  _162
REMARK   71  A    between atoms: _162  and  _163
REMARK   72  A    between atoms: _162  and  _165
REMARK   73  A    between atoms: _165  and  _166
REMARK   74  A    between atoms: _169  and  _171
REMARK   75  A    between atoms: _171  and  _172
REMARK   76  A    between atoms: _174  and  _176
REMARK   77  A    between atoms: _176  and  _177
REMARK   78  A    between atoms: _179  and  _181
REMARK   79  A    between atoms: _181  and  _182
REMARK   80  A    between atoms: _181  and  _184
REMARK   81  A    between atoms: _184  and  _185
REMARK   82  A    between atoms: _191  and  _193
REMARK   83  A    between atoms: _193  and  _194
REMARK   84  A    between atoms: _193  and  _196
REMARK   85  A    between atoms: _196  and  _197
REMARK   86  A    between atoms: _200  and  _202
REMARK   87  A    between atoms: _202  and  _203
REMARK   88  A    between atoms: _202  and  _205
REMARK   89  A    between atoms: _208  and  _210
REMARK   90  A    between atoms: _210  and  _211
REMARK   91  A    between atoms: _210  and  _213
REMARK   92  A    between atoms: _213  and  _214
REMARK   93  A    between atoms: _218  and  _219
REMARK   94  A    between atoms: _224  and  _226
REMARK   95  A    between atoms: _226  and  _227
REMARK   96  A    between atoms: _226  and  _229
REMARK   97  A    between atoms: _229  and  _230
REMARK   98  A    between atoms: _234  and  _235
REMARK   99  A    between atoms: _240  and  _242
REMARK  100  A    between atoms: _242  and  _243
REMARK  101  A    between atoms: _242  and  _245
REMARK  102  A    between atoms: _248  and  _250
REMARK  103  A    between atoms: _250  and  _251
REMARK  104  A    between atoms: _250  and  _253
REMARK  105  A    between atoms: _253  and  _254
REMARK  106  A    between atoms: _259  and  _261
REMARK  107  A    between atoms: _261  and  _262
REMARK  108  A    between atoms: _261  and  _264
REMARK  109  A    between atoms: _267  and  _269
REMARK  110  A    between atoms: _269  and  _270
REMARK  111  A    between atoms: _269  and  _272
REMARK  112  A    between atoms: _272  and  _273
REMARK  113  A    between atoms: _276  and  _278
REMARK  114  A    between atoms: _278  and  _279
REMARK  115  A    between atoms: _281  and  _283
REMARK  116  A    between atoms: _283  and  _284
REMARK  117  A    between atoms: _283  and  _286
REMARK  118  A    between atoms: _287  and  _288
REMARK  119  A    between atoms: _288  and  _289
REMARK  120  A    between atoms: _298  and  _300
REMARK  121  A    between atoms: _300  and  _301
REMARK  122  A    between atoms: _300  and  _303
REMARK  123  A    between atoms: _303  and  _304
REMARK  124  A    between atoms: _309  and  _311
REMARK  125  A    between atoms: _311  and  _312
REMARK  126  A    between atoms: _311  and  _314
REMARK  127  A    between atoms: _314  and  _315
REMARK  128  A    between atoms: _315  and  _316
REMARK  129  A    between atoms: _316  and  _317
REMARK  130  A    between atoms: _326  and  _328
REMARK  131  A    between atoms: _328  and  _329
REMARK  132  A    between atoms: _328  and  _331
REMARK  133  A    between atoms: _331  and  _332
REMARK  134  A    between atoms: _335  and  _337
REMARK  135  A    between atoms: _337  and  _338
REMARK  136  A    between atoms: _337  and  _340
REMARK  137  A    between atoms: _340  and  _341
REMARK  138  A    between atoms: _344  and  _346
REMARK  139  A    between atoms: _346  and  _347
REMARK  140  A    between atoms: _346  and  _349
REMARK  141  A    between atoms: _349  and  _350
REMARK  142  A    between atoms: _353  and  _355
REMARK  143  A    between atoms: _355  and  _356
REMARK  144  A    between atoms: _355  and  _358
REMARK  145  A    between atoms: _358  and  _359
REMARK  146  A    between atoms: _362  and  _364
REMARK  147  A    between atoms: _364  and  _365
REMARK  148  A    between atoms: _367  and  _369
REMARK  149  A    between atoms: _369  and  _370
REMARK  150  A    between atoms: _373  and  _375
REMARK  151  A    between atoms: _375  and  _376
REMARK  152  A    between atoms: _375  and  _378
REMARK  153  A    between atoms: _378  and  _379
REMARK  154  A    between atoms: _382  and  _384
REMARK  155  A    between atoms: _384  and  _385
REMARK  156  A    between atoms: _384  and  _387
REMARK  157  A    between atoms: _387  and  _388
REMARK  158  A    between atoms: _391  and  _393
REMARK  159  A    between atoms: _393  and  _394
REMARK  160  A    between atoms: _393  and  _396
REMARK  161  A    between atoms: _396  and  _397
REMARK  162  A    between atoms: _400  and  _402
REMARK  163  A    between atoms: _402  and  _403
REMARK  164  A    between atoms: _402  and  _405
REMARK  165  A    between atoms: _408  and  _410
REMARK  166  A    between atoms: _410  and  _411
REMARK  167  A    between atoms: _410  and  _413
REMARK  168  A    between atoms: _413  and  _414
REMARK  169  A    between atoms: _414  and  _415
REMARK  170  A    between atoms: _415  and  _416
REMARK  171  A    between atoms: _416  and  _417
REMARK  172  A    between atoms: _421  and  _423
REMARK  173  A    between atoms: _423  and  _424
REMARK  174  A    between atoms: _423  and  _426
REMARK  175  A    between atoms: _426  and  _427
REMARK  176  A    between atoms: _427  and  _428
REMARK  177  A    between atoms: _430  and  _432
REMARK  178  A    between atoms: _432  and  _433
REMARK  179  A    between atoms: _432  and  _435
REMARK  180  A    between atoms: _435  and  _436
REMARK  181  A    between atoms: _439  and  _441
REMARK  182  A    between atoms: _441  and  _442
REMARK  183  A    between atoms: _444  and  _446
REMARK  184  A    between atoms: _446  and  _447
REMARK  185  A    between atoms: _449  and  _451
REMARK  186  A    between atoms: _451  and  _452
REMARK  187  A    between atoms: _451  and  _454
REMARK  188  A    between atoms: _454  and  _455
REMARK  189  A    between atoms: _458  and  _460
REMARK  190  A    between atoms: _460  and  _461
REMARK  191  A    between atoms: _463  and  _465
REMARK  192  A    between atoms: _465  and  _466
REMARK  193  A    between atoms: _468  and  _470
REMARK  194  A    between atoms: _470  and  _471
REMARK  195  A    between atoms: _470  and  _473
REMARK  196  A    between atoms: _473  and  _474
REMARK  197  A    between atoms: _480  and  _482
REMARK  198  A    between atoms: _482  and  _483
REMARK  199  A    between atoms: _482  and  _485
REMARK  200  A    between atoms: _485  and  _486
REMARK  201  A    between atoms: _489  and  _491
REMARK  202  A    between atoms: _491  and  _492
REMARK  203  A    between atoms: _491  and  _494
REMARK  204  A    between atoms: _497  and  _499
REMARK  205  A    between atoms: _499  and  _500
REMARK  206  A    between atoms: _499  and  _502
REMARK  207  A    between atoms: _502  and  _503
REMARK  208  A    between atoms: _507  and  _508
REMARK  209  A    between atoms: _513  and  _515
REMARK  210  A    between atoms: _515  and  _516
REMARK  211  A    between atoms: _515  and  _518
REMARK  212  A    between atoms: _518  and  _519
REMARK  213  A    between atoms: _523  and  _524
REMARK  214  A    between atoms: _529  and  _531
REMARK  215  A    between atoms: _531  and  _532
REMARK  216  A    between atoms: _531  and  _534
REMARK  217  A    between atoms: _537  and  _539
REMARK  218  A    between atoms: _539  and  _540
REMARK  219  A    between atoms: _539  and  _542
REMARK  220  A    between atoms: _542  and  _543
REMARK  221  A    between atoms: _548  and  _550
REMARK  222  A    between atoms: _550  and  _551
REMARK  223  A    between atoms: _550  and  _553
REMARK  224  A    between atoms: _556  and  _558
REMARK  225  A    between atoms: _558  and  _559
REMARK  226  A    between atoms: _558  and  _561
REMARK  227  A    between atoms: _561  and  _562
REMARK  228  A    between atoms: _565  and  _567
REMARK  229  A    between atoms: _567  and  _568
REMARK  230  A    between atoms: _570  and  _572
REMARK  231  A    between atoms: _572  and  _573
REMARK  232  A    between atoms: _572  and  _575
REMARK  233  A    between atoms: _575  and  _576
REMARK  234  A    between atoms: _576  and  _577
REMARK  235  A    between atoms: _577  and  _578
REMARK  236  A    between atoms: _587  and  _589
REMARK  237  A    between atoms: _589  and  _590
REMARK  238  A    between atoms: _589  and  _592
REMARK  239  A    between atoms: _592  and  _593
REMARK                            x       y       z     vdW  Elec       q    Type
REMARK                         _______ _______ _______ _____ _____    ______ ____
ROOT
ATOM      1  O   HOH     1       4.753  16.318  21.750  0.00  0.00    +0.000 OA
ENDROOT
TORSDOF 0
REMARK  Name = ../refined-set-2016/2aoc/2aoc_pocket.pdb
REMARK  239 active torsions:
REMARK  status: ('A' for Active; 'I' for Inactive)
REMARK    1  A    between atoms: _1  and  _3
REMARK    2  A    between atoms: _3  and  _4
REMARK    3  A    between atoms: _3  and  _6
REMARK    4  A    between atoms: _6  and  _7
REMARK    5  A    between atoms: _7  and  _8
REMARK    6  A    between atoms: _8  and  _9
REMARK    7  A    between atoms: _18  and  _20
REMARK    8  A    between atoms: _20  and  _21
REMARK    9  A    between atoms: _20  and  _23
REMARK   10  A    between atoms: _23  and  _24
REMARK   11  A    between atoms: _27  and  _29
REMARK   12  A    between atoms: _29  and  _30
REMARK   13  A    between atoms: _29  and  _32
REMARK   14  A    between atoms: _33  and  _34
REMARK   15  A    between atoms: _37  and  _39
REMARK   16  A    between atoms: _39  and  _40
REMARK   17  A    between atoms: _39  and  _42
REMARK   18  A    between atoms: _42  and  _43
REMARK   19  A    between atoms: _46  and  _48
REMARK   20  A    between atoms: _48  and  _49
REMARK   21  A    between atoms: _48  and  _51
REMARK   22  A    between atoms: _51  and  _52
REMARK   23  A    between atoms: _55  and  _57
REMARK   24  A    between atoms: _57  and  _58
REMARK   25  A    between atoms: _57  and  _60
REMARK   26  A    between atoms: _60  and  _61
REMARK   27  A    between atoms: _64  and  _66
REMARK   28  A    between atoms: _66  and  _67
REMARK   29  A    between atoms: _66  and  _69
REMARK   30  A    between atoms: _69  and  _70
REMARK   31  A    between atoms: _73  and  _75
REMARK   32  A    between atoms: _75  and  _76
REMARK   33  A    between atoms: _78  and  _80
REMARK   34  A    between atoms: _80  and  _81
REMARK   35  A    between atoms: _84  and  _86
REMARK   36  A    between atoms: _86  and  _87
REMARK   37  A    between atoms: _86  and  _89
REMARK   38  A    between atoms: _89  and  _90
REMARK   39  A    between atoms: _93  and  _95
REMARK   40  A    between atoms: _95  and  _96
REMARK   41  A    between atoms: _95  and  _98
REMARK   42  A    between atoms: _98  and  _99
REMARK   43  A    between atoms: _102  and  _104
REMARK   44  A    between atoms: _104  and  _105
REMARK   45  A    between atoms: _104  and  _107
REMARK   46  A    between atoms: _107  and  _108
REMARK   47  A    between atoms: _111  and  _113
REMARK   48  A    between atoms: _113  and  _114
REMARK   49  A    between atoms: _113  and  _116
REMARK   50  A    between atoms: _119  and  _121
REMARK   51  A    between atoms: _121  and  _122
REMARK   52  A    between atoms: _121  and  _124
REMARK   53  A    between atoms: _124  and  _125
REMARK   54  A    between atoms: _125  and  _126
REMARK   55  A    between atoms: _126  and  _127
REMARK   56  A    between atoms: _127  and  _128
REMARK   57  A    between atoms: _132  and  _134
REMARK   58  A    between atoms: _134  and  _135
REMARK   59  A    between atoms: _134  and  _137
REMARK   60  A    between atoms: _137  and  _138
REMARK   61  A    between atoms: _138  and  _139
REMARK   62  A    between atoms: _141  and  _143
REMARK   63  A    between atoms: _143  and  _144
REMARK   64  A    between atoms: _143  and  _146
REMARK   65  A    between atoms: _146  and  _147
REMARK   66  A    between atoms: _150  and  _152
REMARK   67  A    between atoms: _152  and  _153
REMARK   68  A    between atoms: _155  and  _157
REMARK   69  A    between atoms: _157  and  _158
REMARK   70  A    between atoms: _160  and  _162
REMARK   71  A    between atoms: _162  and  _163
REMARK   72  A    between atoms: _162  and  _165
REMARK   73  A    between atoms: _165  and  _166
REMARK   74  A    between atoms: _169  and  _171
REMARK   75  A    between atoms: _171  and  _172
REMARK   76  A    between atoms: _174  and  _176
REMARK   77  A    between atoms: _176  and  _177
REMARK   78  A    between atoms: _179  and  _181
REMARK   79  A    between atoms: _181  and  _182
REMARK   80  A    between atoms: _181  and  _184
REMARK   81  A    between atoms: _184  and  _185
REMARK   82  A    between atoms: _191  and  _193
REMARK   83  A    between atoms: _193  and  _194
REMARK   84  A    between atoms: _193  and  _196
REMARK   85  A    between atoms: _196  and  _197
REMARK   86  A    between atoms: _200  and  _202
REMARK   87  A    between atoms: _202  and  _203
REMARK   88  A    between atoms: _202  and  _205
REMARK   89  A    between atoms: _208  and  _210
REMARK   90  A    between atoms: _210  and  _211
REMARK   91  A    between atoms: _210  and  _213
REMARK   92  A    between atoms: _213  and  _214
REMARK   93  A    between atoms: _218  and  _219
REMARK   94  A    between atoms: _224  and  _226
REMARK   95  A    between atoms: _226  and  _227
REMARK   96  A    between atoms: _226  and  _229
REMARK   97  A    between atoms: _229  and  _230
REMARK   98  A    between atoms: _234  and  _235
REMARK   99  A    between atoms: _240  and  _242
REMARK  100  A    between atoms: _242  and  _243
REMARK  101  A    between atoms: _242  and  _245
REMARK  102  A    between atoms: _248  and  _250
REMARK  103  A    between atoms: _250  and  _251
REMARK  104  A    between atoms: _250  and  _253
REMARK  105  A    between atoms: _253  and  _254
REMARK  106  A    between atoms: _259  and  _261
REMARK  107  A    between atoms: _261  and  _262
REMARK  108  A    between atoms: _261  and  _264
REMARK  109  A    between atoms: _267  and  _269
REMARK  110  A    between atoms: _269  and  _270
REMARK  111  A    between atoms: _269  and  _272
REMARK  112  A    between atoms: _272  and  _273
REMARK  113  A    between atoms: _276  and  _278
REMARK  114  A    between atoms: _278  and  _279
REMARK  115  A    between atoms: _281  and  _283
REMARK  116  A    between atoms: _283  and  _284
REMARK  117  A    between atoms: _283  and  _286
REMARK  118  A    between atoms: _287  and  _288
REMARK  119  A    between atoms: _288  and  _289
REMARK  120  A    between atoms: _298  and  _300
REMARK  121  A    between atoms: _300  and  _301
REMARK  122  A    between atoms: _300  and  _303
REMARK  123  A    between atoms: _303  and  _304
REMARK  124  A    between atoms: _309  and  _311
REMARK  125  A    between atoms: _311  and  _312
REMARK  126  A    between atoms: _311  and  _314
REMARK  127  A    between atoms: _314  and  _315
REMARK  128  A    between atoms: _315  and  _316
REMARK  129  A    between atoms: _316  and  _317
REMARK  130  A    between atoms: _326  and  _328
REMARK  131  A    between atoms: _328  and  _329
REMARK  132  A    between atoms: _328  and  _331
REMARK  133  A    between atoms: _331  and  _332
REMARK  134  A    between atoms: _335  and  _337
REMARK  135  A    between atoms: _337  and  _338
REMARK  136  A    between atoms: _337  and  _340
REMARK  137  A    between atoms: _340  and  _341
REMARK  138  A    between atoms: _344  and  _346
REMARK  139  A    between atoms: _346  and  _347
REMARK  140  A    between atoms: _346  and  _349
REMARK  141  A    between atoms: _349  and  _350
REMARK  142  A    between atoms: _353  and  _355
REMARK  143  A    between atoms: _355  and  _356
REMARK  144  A    between atoms: _355  and  _358
REMARK  145  A    between atoms: _358  and  _359
REMARK  146  A    between atoms: _362  and  _364
REMARK  147  A    between atoms: _364  and  _365
REMARK  148  A    between atoms: _367  and  _369
REMARK  149  A    between atoms: _369  and  _370
REMARK  150  A    between atoms: _373  and  _375
REMARK  151  A    between atoms: _375  and  _376
REMARK  152  A    between atoms: _375  and  _378
REMARK  153  A    between atoms: _378  and  _379
REMARK  154  A    between atoms: _382  and  _384
REMARK  155  A    between atoms: _384  and  _385
REMARK  156  A    between atoms: _384  and  _387
REMARK  157  A    between atoms: _387  and  _388
REMARK  158  A    between atoms: _391  and  _393
REMARK  159  A    between atoms: _393  and  _394
REMARK  160  A    between atoms: _393  and  _396
REMARK  161  A    between atoms: _396  and  _397
REMARK  162  A    between atoms: _400  and  _402
REMARK  163  A    between atoms: _402  and  _403
REMARK  164  A    between atoms: _402  and  _405
REMARK  165  A    between atoms: _408  and  _410
REMARK  166  A    between atoms: _410  and  _411
REMARK  167  A    between atoms: _410  and  _413
REMARK  168  A    between atoms: _413  and  _414
REMARK  169  A    between atoms: _414  and  _415
REMARK  170  A    between atoms: _415  and  _416
REMARK  171  A    between atoms: _416  and  _417
REMARK  172  A    between atoms: _421  and  _423
REMARK  173  A    between atoms: _423  and  _424
REMARK  174  A    between atoms: _423  and  _426
REMARK  175  A    between atoms: _426  and  _427
REMARK  176  A    between atoms: _427  and  _428
REMARK  177  A    between atoms: _430  and  _432
REMARK  178  A    between atoms: _432  and  _433
REMARK  179  A    between atoms: _432  and  _435
REMARK  180  A    between atoms: _435  and  _436
REMARK  181  A    between atoms: _439  and  _441
REMARK  182  A    between atoms: _441  and  _442
REMARK  183  A    between atoms: _444  and  _446
REMARK  184  A    between atoms: _446  and  _447
REMARK  185  A    between atoms: _449  and  _451
REMARK  186  A    between atoms: _451  and  _452
REMARK  187  A    between atoms: _451  and  _454
REMARK  188  A    between atoms: _454  and  _455
REMARK  189  A    between atoms: _458  and  _460
REMARK  190  A    between atoms: _460  and  _461
REMARK  191  A    between atoms: _463  and  _465
REMARK  192  A    between atoms: _465  and  _466
REMARK  193  A    between atoms: _468  and  _470
REMARK  194  A    between atoms: _470  and  _471
REMARK  195  A    between atoms: _470  and  _473
REMARK  196  A    between atoms: _473  and  _474
REMARK  197  A    between atoms: _480  and  _482
REMARK  198  A    between atoms: _482  and  _483
REMARK  199  A    between atoms: _482  and  _485
REMARK  200  A    between atoms: _485  and  _486
REMARK  201  A    between atoms: _489  and  _491
REMARK  202  A    between atoms: _491  and  _492
REMARK  203  A    between atoms: _491  and  _494
REMARK  204  A    between atoms: _497  and  _499
REMARK  205  A    between atoms: _499  and  _500
REMARK  206  A    between atoms: _499  and  _502
REMARK  207  A    between atoms: _502  and  _503
REMARK  208  A    between atoms: _507  and  _508
REMARK  209  A    between atoms: _513  and  _515
REMARK  210  A    between atoms: _515  and  _516
REMARK  211  A    between atoms: _515  and  _518
REMARK  212  A    between atoms: _518  and  _519
REMARK  213  A    between atoms: _523  and  _524
REMARK  214  A    between atoms: _529  and  _531
REMARK  215  A    between atoms: _531  and  _532
REMARK  216  A    between atoms: _531  and  _534
REMARK  217  A    between atoms: _537  and  _539
REMARK  218  A    between atoms: _539  and  _540
REMARK  219  A    between atoms: _539  and  _542
REMARK  220  A    between atoms: _542  and  _543
REMARK  221  A    between atoms: _548  and  _550
REMARK  222  A    between atoms: _550  and  _551
REMARK  223  A    between atoms: _550  and  _553
REMARK  224  A    between atoms: _556  and  _558
REMARK  225  A    between atoms: _558  and  _559
REMARK  226  A    between atoms: _558  and  _561
REMARK  227  A    between atoms: _561  and  _562
REMARK  228  A    between atoms: _565  and  _567
REMARK  229  A    between atoms: _567  and  _568
REMARK  230  A    between atoms: _570  and  _572
REMARK  231  A    between atoms: _572  and  _573
REMARK  232  A    between atoms: _572  and  _575
REMARK  233  A    between atoms: _575  and  _576
REMARK  234  A    between atoms: _576  and  _577
REMARK  235  A    between atoms: _577  and  _578
REMARK  236  A    between atoms: _587  and  _589
REMARK  237  A    between atoms: _589  and  _590
REMARK  238  A    between atoms: _589  and  _592
REMARK  239  A    between atoms: _592  and  _593
REMARK                            x       y       z     vdW  Elec       q    Type
REMARK                         _______ _______ _______ _____ _____    ______ ____
ROOT
ATOM      1  O   HOH     1      10.958  11.514  15.039  0.00  0.00    +0.000 OA
ENDROOT
TORSDOF 0
REMARK  Name = ../refined-set-2016/2aoc/2aoc_pocket.pdb
REMARK  239 active torsions:
REMARK  status: ('A' for Active; 'I' for Inactive)
REMARK    1  A    between atoms: _1  and  _3
REMARK    2  A    between atoms: _3  and  _4
REMARK    3  A    between atoms: _3  and  _6
REMARK    4  A    between atoms: _6  and  _7
REMARK    5  A    between atoms: _7  and  _8
REMARK    6  A    between atoms: _8  and  _9
REMARK    7  A    between atoms: _18  and  _20
REMARK    8  A    between atoms: _20  and  _21
REMARK    9  A    between atoms: _20  and  _23
REMARK   10  A    between atoms: _23  and  _24
REMARK   11  A    between atoms: _27  and  _29
REMARK   12  A    between atoms: _29  and  _30
REMARK   13  A    between atoms: _29  and  _32
REMARK   14  A    between atoms: _33  and  _34
REMARK   15  A    between atoms: _37  and  _39
REMARK   16  A    between atoms: _39  and  _40
REMARK   17  A    between atoms: _39  and  _42
REMARK   18  A    between atoms: _42  and  _43
REMARK   19  A    between atoms: _46  and  _48
REMARK   20  A    between atoms: _48  and  _49
REMARK   21  A    between atoms: _48  and  _51
REMARK   22  A    between atoms: _51  and  _52
REMARK   23  A    between atoms: _55  and  _57
REMARK   24  A    between atoms: _57  and  _58
REMARK   25  A    between atoms: _57  and  _60
REMARK   26  A    between atoms: _60  and  _61
REMARK   27  A    between atoms: _64  and  _66
REMARK   28  A    between atoms: _66  and  _67
REMARK   29  A    between atoms: _66  and  _69
REMARK   30  A    between atoms: _69  and  _70
REMARK   31  A    between atoms: _73  and  _75
REMARK   32  A    between atoms: _75  and  _76
REMARK   33  A    between atoms: _78  and  _80
REMARK   34  A    between atoms: _80  and  _81
REMARK   35  A    between atoms: _84  and  _86
REMARK   36  A    between atoms: _86  and  _87
REMARK   37  A    between atoms: _86  and  _89
REMARK   38  A    between atoms: _89  and  _90
REMARK   39  A    between atoms: _93  and  _95
REMARK   40  A    between atoms: _95  and  _96
REMARK   41  A    between atoms: _95  and  _98
REMARK   42  A    between atoms: _98  and  _99
REMARK   43  A    between atoms: _102  and  _104
REMARK   44  A    between atoms: _104  and  _105
REMARK   45  A    between atoms: _104  and  _107
REMARK   46  A    between atoms: _107  and  _108
REMARK   47  A    between atoms: _111  and  _113
REMARK   48  A    between atoms: _113  and  _114
REMARK   49  A    between atoms: _113  and  _116
REMARK   50  A    between atoms: _119  and  _121
REMARK   51  A    between atoms: _121  and  _122
REMARK   52  A    between atoms: _121  and  _124
REMARK   53  A    between atoms: _124  and  _125
REMARK   54  A    between atoms: _125  and  _126
REMARK   55  A    between atoms: _126  and  _127
REMARK   56  A    between atoms: _127  and  _128
REMARK   57  A    between atoms: _132  and  _134
REMARK   58  A    between atoms: _134  and  _135
REMARK   59  A    between atoms: _134  and  _137
REMARK   60  A    between atoms: _137  and  _138
REMARK   61  A    between atoms: _138  and  _139
REMARK   62  A    between atoms: _141  and  _143
REMARK   63  A    between atoms: _143  and  _144
REMARK   64  A    between atoms: _143  and  _146
REMARK   65  A    between atoms: _146  and  _147
REMARK   66  A    between atoms: _150  and  _152
REMARK   67  A    between atoms: _152  and  _153
REMARK   68  A    between atoms: _155  and  _157
REMARK   69  A    between atoms: _157  and  _158
REMARK   70  A    between atoms: _160  and  _162
REMARK   71  A    between atoms: _162  and  _163
REMARK   72  A    between atoms: _162  and  _165
REMARK   73  A    between atoms: _165  and  _166
REMARK   74  A    between atoms: _169  and  _171
REMARK   75  A    between atoms: _171  and  _172
REMARK   76  A    between atoms: _174  and  _176
REMARK   77  A    between atoms: _176  and  _177
REMARK   78  A    between atoms: _179  and  _181
REMARK   79  A    between atoms: _181  and  _182
REMARK   80  A    between atoms: _181  and  _184
REMARK   81  A    between atoms: _184  and  _185
REMARK   82  A    between atoms: _191  and  _193
REMARK   83  A    between atoms: _193  and  _194
REMARK   84  A    between atoms: _193  and  _196
REMARK   85  A    between atoms: _196  and  _197
REMARK   86  A    between atoms: _200  and  _202
REMARK   87  A    between atoms: _202  and  _203
REMARK   88  A    between atoms: _202  and  _205
REMARK   89  A    between atoms: _208  and  _210
REMARK   90  A    between atoms: _210  and  _211
REMARK   91  A    between atoms: _210  and  _213
REMARK   92  A    between atoms: _213  and  _214
REMARK   93  A    between atoms: _218  and  _219
REMARK   94  A    between atoms: _224  and  _226
REMARK   95  A    between atoms: _226  and  _227
REMARK   96  A    between atoms: _226  and  _229
REMARK   97  A    between atoms: _229  and  _230
REMARK   98  A    between atoms: _234  and  _235
REMARK   99  A    between atoms: _240  and  _242
REMARK  100  A    between atoms: _242  and  _243
REMARK  101  A    between atoms: _242  and  _245
REMARK  102  A    between atoms: _248  and  _250
REMARK  103  A    between atoms: _250  and  _251
REMARK  104  A    between atoms: _250  and  _253
REMARK  105  A    between atoms: _253  and  _254
REMARK  106  A    between atoms: _259  and  _261
REMARK  107  A    between atoms: _261  and  _262
REMARK  108  A    between atoms: _261  and  _264
REMARK  109  A    between atoms: _267  and  _269
REMARK  110  A    between atoms: _269  and  _270
REMARK  111  A    between atoms: _269  and  _272
REMARK  112  A    between atoms: _272  and  _273
REMARK  113  A    between atoms: _276  and  _278
REMARK  114  A    between atoms: _278  and  _279
REMARK  115  A    between atoms: _281  and  _283
REMARK  116  A    between atoms: _283  and  _284
REMARK  117  A    between atoms: _283  and  _286
REMARK  118  A    between atoms: _287  and  _288
REMARK  119  A    between atoms: _288  and  _289
REMARK  120  A    between atoms: _298  and  _300
REMARK  121  A    between atoms: _300  and  _301
REMARK  122  A    between atoms: _300  and  _303
REMARK  123  A    between atoms: _303  and  _304
REMARK  124  A    between atoms: _309  and  _311
REMARK  125  A    between atoms: _311  and  _312
REMARK  126  A    between atoms: _311  and  _314
REMARK  127  A    between atoms: _314  and  _315
REMARK  128  A    between atoms: _315  and  _316
REMARK  129  A    between atoms: _316  and  _317
REMARK  130  A    between atoms: _326  and  _328
REMARK  131  A    between atoms: _328  and  _329
REMARK  132  A    between atoms: _328  and  _331
REMARK  133  A    between atoms: _331  and  _332
REMARK  134  A    between atoms: _335  and  _337
REMARK  135  A    between atoms: _337  and  _338
REMARK  136  A    between atoms: _337  and  _340
REMARK  137  A    between atoms: _340  and  _341
REMARK  138  A    between atoms: _344  and  _346
REMARK  139  A    between atoms: _346  and  _347
REMARK  140  A    between atoms: _346  and  _349
REMARK  141  A    between atoms: _349  and  _350
REMARK  142  A    between atoms: _353  and  _355
REMARK  143  A    between atoms: _355  and  _356
REMARK  144  A    between atoms: _355  and  _358
REMARK  145  A    between atoms: _358  and  _359
REMARK  146  A    between atoms: _362  and  _364
REMARK  147  A    between atoms: _364  and  _365
REMARK  148  A    between atoms: _367  and  _369
REMARK  149  A    between atoms: _369  and  _370
REMARK  150  A    between atoms: _373  and  _375
REMARK  151  A    between atoms: _375  and  _376
REMARK  152  A    between atoms: _375  and  _378
REMARK  153  A    between atoms: _378  and  _379
REMARK  154  A    between atoms: _382  and  _384
REMARK  155  A    between atoms: _384  and  _385
REMARK  156  A    between atoms: _384  and  _387
REMARK  157  A    between atoms: _387  and  _388
REMARK  158  A    between atoms: _391  and  _393
REMARK  159  A    between atoms: _393  and  _394
REMARK  160  A    between atoms: _393  and  _396
REMARK  161  A    between atoms: _396  and  _397
REMARK  162  A    between atoms: _400  and  _402
REMARK  163  A    between atoms: _402  and  _403
REMARK  164  A    between atoms: _402  and  _405
REMARK  165  A    between atoms: _408  and  _410
REMARK  166  A    between atoms: _410  and  _411
REMARK  167  A    between atoms: _410  and  _413
REMARK  168  A    between atoms: _413  and  _414
REMARK  169  A    between atoms: _414  and  _415
REMARK  170  A    between atoms: _415  and  _416
REMARK  171  A    between atoms: _416  and  _417
REMARK  172  A    between atoms: _421  and  _423
REMARK  173  A    between atoms: _423  and  _424
REMARK  174  A    between atoms: _423  and  _426
REMARK  175  A    between atoms: _426  and  _427
REMARK  176  A    between atoms: _427  and  _428
REMARK  177  A    between atoms: _430  and  _432
REMARK  178  A    between atoms: _432  and  _433
REMARK  179  A    between atoms: _432  and  _435
REMARK  180  A    between atoms: _435  and  _436
REMARK  181  A    between atoms: _439  and  _441
REMARK  182  A    between atoms: _441  and  _442
REMARK  183  A    between atoms: _444  and  _446
REMARK  184  A    between atoms: _446  and  _447
REMARK  185  A    between atoms: _449  and  _451
REMARK  186  A    between atoms: _451  and  _452
REMARK  187  A    between atoms: _451  and  _454
REMARK  188  A    between atoms: _454  and  _455
REMARK  189  A    between atoms: _458  and  _460
REMARK  190  A    between atoms: _460  and  _461
REMARK  191  A    between atoms: _463  and  _465
REMARK  192  A    between atoms: _465  and  _466
REMARK  193  A    between atoms: _468  and  _470
REMARK  194  A    between atoms: _470  and  _471
REMARK  195  A    between atoms: _470  and  _473
REMARK  196  A    between atoms: _473  and  _474
REMARK  197  A    between atoms: _480  and  _482
REMARK  198  A    between atoms: _482  and  _483
REMARK  199  A    between atoms: _482  and  _485
REMARK  200  A    between atoms: _485  and  _486
REMARK  201  A    between atoms: _489  and  _491
REMARK  202  A    between atoms: _491  and  _492
REMARK  203  A    between atoms: _491  and  _494
REMARK  204  A    between atoms: _497  and  _499
REMARK  205  A    between atoms: _499  and  _500
REMARK  206  A    between atoms: _499  and  _502
REMARK  207  A    between atoms: _502  and  _503
REMARK  208  A    between atoms: _507  and  _508
REMARK  209  A    between atoms: _513  and  _515
REMARK  210  A    between atoms: _515  and  _516
REMARK  211  A    between atoms: _515  and  _518
REMARK  212  A    between atoms: _518  and  _519
REMARK  213  A    between atoms: _523  and  _524
REMARK  214  A    between atoms: _529  and  _531
REMARK  215  A    between atoms: _531  and  _532
REMARK  216  A    between atoms: _531  and  _534
REMARK  217  A    between atoms: _537  and  _539
REMARK  218  A    between atoms: _539  and  _540
REMARK  219  A    between atoms: _539  and  _542
REMARK  220  A    between atoms: _542  and  _543
REMARK  221  A    between atoms: _548  and  _550
REMARK  222  A    between atoms: _550  and  _551
REMARK  223  A    between atoms: _550  and  _553
REMARK  224  A    between atoms: _556  and  _558
REMARK  225  A    between atoms: _558  and  _559
REMARK  226  A    between atoms: _558  and  _561
REMARK  227  A    between atoms: _561  and  _562
REMARK  228  A    between atoms: _565  and  _567
REMARK  229  A    between atoms: _567  and  _568
REMARK  230  A    between atoms: _570  and  _572
REMARK  231  A    between atoms: _572  and  _573
REMARK  232  A    between atoms: _572  and  _575
REMARK  233  A    between atoms: _575  and  _576
REMARK  234  A    between atoms: _576  and  _577
REMARK  235  A    between atoms: _577  and  _578
REMARK  236  A    between atoms: _587  and  _589
REMARK  237  A    between atoms: _589  and  _590
REMARK  238  A    between atoms: _589  and  _592
REMARK  239  A    between atoms: _592  and  _593
REMARK                            x       y       z     vdW  Elec       q    Type
REMARK                         _______ _______ _______ _____ _____    ______ ____
ROOT
ATOM      1  O   HOH     1       5.318  15.911  19.134  0.00  0.00    +0.000 OA
ENDROOT
TORSDOF 0
