REMARK  Name = ../refined-set-2016/1ro7/1ro7_pocket.pdb
REMARK  257 active torsions:
REMARK  status: ('A' for Active; 'I' for Inactive)
REMARK    1  A    between atoms: _1  and  _3
REMARK    2  A    between atoms: _3  and  _4
REMARK    3  A    between atoms: _3  and  _6
REMARK    4  A    between atoms: _6  and  _7
REMARK    5  A    between atoms: _10  and  _12
REMARK    6  A    between atoms: _12  and  _13
REMARK    7  A    between atoms: _16  and  _18
REMARK    8  A    between atoms: _18  and  _19
REMARK    9  A    between atoms: _21  and  _23
REMARK   10  A    between atoms: _23  and  _24
REMARK   11  A    between atoms: _23  and  _26
REMARK   12  A    between atoms: _26  and  _27
REMARK   13  A    between atoms: _32  and  _34
REMARK   14  A    between atoms: _34  and  _35
REMARK   15  A    between atoms: _38  and  _39
REMARK   16  A    between atoms: _44  and  _46
REMARK   17  A    between atoms: _46  and  _47
REMARK   18  A    between atoms: _46  and  _49
REMARK   19  A    between atoms: _49  and  _50
REMARK   20  A    between atoms: _52  and  _54
REMARK   21  A    between atoms: _54  and  _55
REMARK   22  A    between atoms: _54  and  _57
REMARK   23  A    between atoms: _57  and  _58
REMARK   24  A    between atoms: _61  and  _63
REMARK   25  A    between atoms: _63  and  _64
REMARK   26  A    between atoms: _63  and  _66
REMARK   27  A    between atoms: _66  and  _67
REMARK   28  A    between atoms: _67  and  _68
REMARK   29  A    between atoms: _68  and  _69
REMARK   30  A    between atoms: _78  and  _80
REMARK   31  A    between atoms: _80  and  _81
REMARK   32  A    between atoms: _80  and  _83
REMARK   33  A    between atoms: _85  and  _87
REMARK   34  A    between atoms: _87  and  _88
REMARK   35  A    between atoms: _87  and  _90
REMARK   36  A    between atoms: _90  and  _91
REMARK   37  A    between atoms: _96  and  _98
REMARK   38  A    between atoms: _98  and  _99
REMARK   39  A    between atoms: _98  and  _101
REMARK   40  A    between atoms: _101  and  _102
REMARK   41  A    between atoms: _102  and  _103
REMARK   42  A    between atoms: _108  and  _110
REMARK   43  A    between atoms: _110  and  _111
REMARK   44  A    between atoms: _110  and  _113
REMARK   45  A    between atoms: _113  and  _114
REMARK   46  A    between atoms: _120  and  _122
REMARK   47  A    between atoms: _122  and  _123
REMARK   48  A    between atoms: _122  and  _125
REMARK   49  A    between atoms: _125  and  _126
REMARK   50  A    between atoms: _131  and  _132
REMARK   51  A    between atoms: _134  and  _136
REMARK   52  A    between atoms: _136  and  _137
REMARK   53  A    between atoms: _136  and  _139
REMARK   54  A    between atoms: _139  and  _140
REMARK   55  A    between atoms: _146  and  _148
REMARK   56  A    between atoms: _148  and  _149
REMARK   57  A    between atoms: _148  and  _151
REMARK   58  A    between atoms: _151  and  _152
REMARK   59  A    between atoms: _157  and  _158
REMARK   60  A    between atoms: _160  and  _162
REMARK   61  A    between atoms: _162  and  _163
REMARK   62  A    between atoms: _162  and  _165
REMARK   63  A    between atoms: _165  and  _166
REMARK   64  A    between atoms: _172  and  _173
REMARK   65  A    between atoms: _178  and  _180
REMARK   66  A    between atoms: _180  and  _181
REMARK   67  A    between atoms: _180  and  _183
REMARK   68  A    between atoms: _183  and  _184
REMARK   69  A    between atoms: _186  and  _188
REMARK   70  A    between atoms: _188  and  _189
REMARK   71  A    between atoms: _188  and  _191
REMARK   72  A    between atoms: _191  and  _192
REMARK   73  A    between atoms: _195  and  _197
REMARK   74  A    between atoms: _197  and  _198
REMARK   75  A    between atoms: _197  and  _200
REMARK   76  A    between atoms: _200  and  _201
REMARK   77  A    between atoms: _207  and  _209
REMARK   78  A    between atoms: _209  and  _210
REMARK   79  A    between atoms: _209  and  _212
REMARK   80  A    between atoms: _212  and  _213
REMARK   81  A    between atoms: _213  and  _214
REMARK   82  A    between atoms: _219  and  _221
REMARK   83  A    between atoms: _221  and  _222
REMARK   84  A    between atoms: _221  and  _224
REMARK   85  A    between atoms: _224  and  _225
REMARK   86  A    between atoms: _227  and  _229
REMARK   87  A    between atoms: _229  and  _230
REMARK   88  A    between atoms: _229  and  _232
REMARK   89  A    between atoms: _232  and  _233
REMARK   90  A    between atoms: _238  and  _239
REMARK   91  A    between atoms: _241  and  _243
REMARK   92  A    between atoms: _243  and  _244
REMARK   93  A    between atoms: _243  and  _246
REMARK   94  A    between atoms: _246  and  _247
REMARK   95  A    between atoms: _247  and  _248
REMARK   96  A    between atoms: _248  and  _249
REMARK   97  A    between atoms: _258  and  _260
REMARK   98  A    between atoms: _260  and  _261
REMARK   99  A    between atoms: _260  and  _263
REMARK  100  A    between atoms: _263  and  _264
REMARK  101  A    between atoms: _267  and  _269
REMARK  102  A    between atoms: _269  and  _270
REMARK  103  A    between atoms: _269  and  _272
REMARK  104  A    between atoms: _272  and  _273
REMARK  105  A    between atoms: _276  and  _278
REMARK  106  A    between atoms: _278  and  _279
REMARK  107  A    between atoms: _278  and  _281
REMARK  108  A    between atoms: _281  and  _282
REMARK  109  A    between atoms: _284  and  _286
REMARK  110  A    between atoms: _286  and  _287
REMARK  111  A    between atoms: _289  and  _291
REMARK  112  A    between atoms: _291  and  _292
REMARK  113  A    between atoms: _291  and  _294
REMARK  114  A    between atoms: _297  and  _299
REMARK  115  A    between atoms: _299  and  _300
REMARK  116  A    between atoms: _299  and  _302
REMARK  117  A    between atoms: _302  and  _303
REMARK  118  A    between atoms: _308  and  _309
REMARK  119  A    between atoms: _311  and  _313
REMARK  120  A    between atoms: _313  and  _314
REMARK  121  A    between atoms: _313  and  _316
REMARK  122  A    between atoms: _316  and  _317
REMARK  123  A    between atoms: _317  and  _318
REMARK  124  A    between atoms: _320  and  _322
REMARK  125  A    between atoms: _322  and  _323
REMARK  126  A    between atoms: _322  and  _325
REMARK  127  A    between atoms: _325  and  _326
REMARK  128  A    between atoms: _328  and  _330
REMARK  129  A    between atoms: _330  and  _331
REMARK  130  A    between atoms: _333  and  _335
REMARK  131  A    between atoms: _335  and  _336
REMARK  132  A    between atoms: _335  and  _338
REMARK  133  A    between atoms: _338  and  _339
REMARK  134  A    between atoms: _342  and  _344
REMARK  135  A    between atoms: _344  and  _345
REMARK  136  A    between atoms: _344  and  _347
REMARK  137  A    between atoms: _347  and  _348
REMARK  138  A    between atoms: _351  and  _353
REMARK  139  A    between atoms: _353  and  _354
REMARK  140  A    between atoms: _353  and  _356
REMARK  141  A    between atoms: _356  and  _357
REMARK  142  A    between atoms: _363  and  _365
REMARK  143  A    between atoms: _365  and  _366
REMARK  144  A    between atoms: _365  and  _368
REMARK  145  A    between atoms: _368  and  _369
REMARK  146  A    between atoms: _374  and  _375
REMARK  147  A    between atoms: _377  and  _379
REMARK  148  A    between atoms: _379  and  _380
REMARK  149  A    between atoms: _379  and  _382
REMARK  150  A    between atoms: _382  and  _383
REMARK  151  A    between atoms: _383  and  _384
REMARK  152  A    between atoms: _389  and  _391
REMARK  153  A    between atoms: _391  and  _392
REMARK  154  A    between atoms: _391  and  _394
REMARK  155  A    between atoms: _394  and  _395
REMARK  156  A    between atoms: _400  and  _402
REMARK  157  A    between atoms: _402  and  _403
REMARK  158  A    between atoms: _405  and  _407
REMARK  159  A    between atoms: _407  and  _408
REMARK  160  A    between atoms: _407  and  _410
REMARK  161  A    between atoms: _410  and  _411
REMARK  162  A    between atoms: _413  and  _415
REMARK  163  A    between atoms: _415  and  _416
REMARK  164  A    between atoms: _415  and  _418
REMARK  165  A    between atoms: _418  and  _419
REMARK  166  A    between atoms: _421  and  _423
REMARK  167  A    between atoms: _423  and  _424
REMARK  168  A    between atoms: _423  and  _426
REMARK  169  A    between atoms: _426  and  _427
REMARK  170  A    between atoms: _432  and  _433
REMARK  171  A    between atoms: _435  and  _437
REMARK  172  A    between atoms: _437  and  _438
REMARK  173  A    between atoms: _441  and  _443
REMARK  174  A    between atoms: _443  and  _444
REMARK  175  A    between atoms: _443  and  _446
REMARK  176  A    between atoms: _446  and  _447
REMARK  177  A    between atoms: _453  and  _455
REMARK  178  A    between atoms: _455  and  _456
REMARK  179  A    between atoms: _455  and  _458
REMARK  180  A    between atoms: _458  and  _459
REMARK  181  A    between atoms: _462  and  _464
REMARK  182  A    between atoms: _464  and  _465
REMARK  183  A    between atoms: _464  and  _467
REMARK  184  A    between atoms: _467  and  _468
REMARK  185  A    between atoms: _471  and  _473
REMARK  186  A    between atoms: _473  and  _474
REMARK  187  A    between atoms: _473  and  _476
REMARK  188  A    between atoms: _476  and  _477
REMARK  189  A    between atoms: _480  and  _482
REMARK  190  A    between atoms: _482  and  _483
REMARK  191  A    between atoms: _487  and  _488
REMARK  192  A    between atoms: _493  and  _495
REMARK  193  A    between atoms: _495  and  _496
REMARK  194  A    between atoms: _495  and  _498
REMARK  195  A    between atoms: _498  and  _499
REMARK  196  A    between atoms: _504  and  _506
REMARK  197  A    between atoms: _506  and  _507
REMARK  198  A    between atoms: _506  and  _509
REMARK  199  A    between atoms: _509  and  _510
REMARK  200  A    between atoms: _516  and  _518
REMARK  201  A    between atoms: _518  and  _519
REMARK  202  A    between atoms: _518  and  _521
REMARK  203  A    between atoms: _521  and  _522
REMARK  204  A    between atoms: _522  and  _523
REMARK  205  A    between atoms: _523  and  _524
REMARK  206  A    between atoms: _524  and  _525
REMARK  207  A    between atoms: _529  and  _531
REMARK  208  A    between atoms: _531  and  _532
REMARK  209  A    between atoms: _531  and  _534
REMARK  210  A    between atoms: _534  and  _535
REMARK  211  A    between atoms: _540  and  _542
REMARK  212  A    between atoms: _542  and  _543
REMARK  213  A    between atoms: _542  and  _545
REMARK  214  A    between atoms: _545  and  _546
REMARK  215  A    between atoms: _551  and  _553
REMARK  216  A    between atoms: _553  and  _554
REMARK  217  A    between atoms: _553  and  _556
REMARK  218  A    between atoms: _556  and  _557
REMARK  219  A    between atoms: _559  and  _561
REMARK  220  A    between atoms: _561  and  _562
REMARK  221  A    between atoms: _561  and  _564
REMARK  222  A    between atoms: _564  and  _565
REMARK  223  A    between atoms: _570  and  _572
REMARK  224  A    between atoms: _572  and  _573
REMARK  225  A    between atoms: _572  and  _575
REMARK  226  A    between atoms: _575  and  _576
REMARK  227  A    between atoms: _581  and  _582
REMARK  228  A    between atoms: _584  and  _586
REMARK  229  A    between atoms: _586  and  _587
REMARK  230  A    between atoms: _586  and  _589
REMARK  231  A    between atoms: _589  and  _590
REMARK  232  A    between atoms: _593  and  _595
REMARK  233  A    between atoms: _595  and  _596
REMARK  234  A    between atoms: _598  and  _600
REMARK  235  A    between atoms: _600  and  _601
REMARK  236  A    between atoms: _600  and  _603
REMARK  237  A    between atoms: _603  and  _604
REMARK  238  A    between atoms: _609  and  _611
REMARK  239  A    between atoms: _611  and  _612
REMARK  240  A    between atoms: _611  and  _614
REMARK  241  A    between atoms: _614  and  _615
REMARK  242  A    between atoms: _617  and  _619
REMARK  243  A    between atoms: _619  and  _620
REMARK  244  A    between atoms: _619  and  _622
REMARK  245  A    between atoms: _622  and  _623
REMARK  246  A    between atoms: _626  and  _628
REMARK  247  A    between atoms: _628  and  _629
REMARK  248  A    between atoms: _628  and  _631
REMARK  249  A    between atoms: _631  and  _632
REMARK  250  A    between atoms: _634  and  _636
REMARK  251  A    between atoms: _636  and  _637
REMARK  252  A    between atoms: _636  and  _639
REMARK  253  A    between atoms: _639  and  _640
REMARK  254  A    between atoms: _643  and  _645
REMARK  255  A    between atoms: _645  and  _646
REMARK  256  A    between atoms: _645  and  _648
REMARK  257  A    between atoms: _648  and  _649
REMARK                            x       y       z     vdW  Elec       q    Type
REMARK                         _______ _______ _______ _____ _____    ______ ____
ROOT
ATOM      1  C   ASN A   4      28.131   1.755  16.529  0.00  0.00    +0.241 C 
ATOM      2  O   ASN A   4      29.187   1.202  16.213  0.00  0.00    -0.273 OA
ATOM      3  N   GLY A   5      27.649   2.820  15.897  0.00  0.00    -0.295 N 
ATOM      4  H   GLY A   5      26.749   3.239  16.207  0.00  0.00    +0.150 HD
ENDROOT
BRANCH   3   5
ATOM      5  CA  GLY A   5      28.368   3.404  14.777  0.00  0.00    +0.176 C 
BRANCH   5   6
ATOM      6  C   GLY A   5      29.681   4.006  15.239  0.00  0.00    +0.246 C 
ATOM      7  O   GLY A   5      29.903   4.149  16.441  0.00  0.00    -0.273 OA
ATOM      8  N   PRO A   6      30.574   4.380  14.309  0.00  0.00    -0.272 N 
ATOM      9  CA  PRO A   6      31.866   4.964  14.674  0.00  0.00    +0.152 C 
ATOM     10  CB  PRO A   6      32.546   5.173  13.320  0.00  0.00    +0.031 C 
ATOM     11  CG  PRO A   6      31.411   5.379  12.395  0.00  0.00    +0.024 C 
ATOM     12  CD  PRO A   6      30.423   4.330  12.846  0.00  0.00    +0.094 C 
BRANCH   9  13
ATOM     13  C   PRO A   6      31.811   6.243  15.503  0.00  0.00    +0.241 C 
ATOM     14  O   PRO A   6      32.806   6.617  16.121  0.00  0.00    -0.273 OA
ATOM     15  N   SER A   7      30.658   6.906  15.530  0.00  0.00    -0.295 N 
ATOM     16  H   SER A   7      29.842   6.538  15.000  0.00  0.00    +0.150 HD
BRANCH  15  17
ATOM     17  CA  SER A   7      30.522   8.144  16.295  0.00  0.00    +0.178 C 
BRANCH  17  18
ATOM     18  C   SER A   7      30.502   7.889  17.799  0.00  0.00    +0.243 C 
ATOM     19  O   SER A   7      30.624   8.818  18.599  0.00  0.00    -0.273 OA
ATOM     20  N   LEU A   8      30.350   6.626  18.185  0.00  0.00    -0.298 N 
ATOM     21  H   LEU A   8      30.239   5.882  17.467  0.00  0.00    +0.150 HD
BRANCH  20  22
ATOM     22  CA  LEU A   8      30.337   6.267  19.597  0.00  0.00    +0.137 C 
BRANCH  22  23
ATOM     23  C   LEU A   8      31.712   6.553  20.205  0.00  0.00    +0.227 C 
ATOM     24  O   LEU A   8      31.825   6.843  21.395  0.00  0.00    -0.286 OA
ENDBRANCH  22  23
BRANCH  22  25
ATOM     25  CB  LEU A   8      29.998   4.782  19.763  0.00  0.00    +0.028 C 
BRANCH  25  26
ATOM     26  CG  LEU A   8      30.028   4.219  21.185  0.00  0.00    +0.002 C 
ATOM     27  CD2 LEU A   8      28.991   4.927  22.044  0.00  0.00    +0.000 C 
ATOM     28  CD1 LEU A   8      29.755   2.721  21.141  0.00  0.00    +0.000 C 
ENDBRANCH  25  26
ENDBRANCH  22  25
ENDBRANCH  20  22
ENDBRANCH  17  18
BRANCH  17  29
ATOM     29  CB  SER A   7      29.259   8.907  15.877  0.00  0.00    +0.166 C 
BRANCH  29  30
ATOM     30  OG  SER A   7      28.086   8.146  16.086  0.00  0.00    -0.380 OA
ATOM     31  H   SER A   7      28.135   7.313  15.553  0.00  0.00    +0.211 HD
ENDBRANCH  29  30
ENDBRANCH  17  29
ENDBRANCH  15  17
ENDBRANCH   9  13
ENDBRANCH   5   6
ENDBRANCH   3   5
BRANCH   1  32
ATOM     32  CA  ASN A   4      27.303   1.251  17.703  0.00  0.00    +0.158 C 
BRANCH  32  35
ATOM     33  C   GLY A   3      25.431   2.434  18.629  0.00  0.00    +0.243 C 
ATOM     34  O   GLY A   3      26.136   2.847  19.550  0.00  0.00    -0.273 OA
ATOM     35  N   ASN A   4      25.908   1.656  17.667  0.00  0.00    -0.297 N 
ATOM     36  H   ASN A   4      25.289   1.339  16.894  0.00  0.00    +0.150 HD
BRANCH  33  37
ATOM     37  CA  GLY A   3      23.972   2.835  18.571  0.00  0.00    +0.176 C 
BRANCH  37  40
ATOM     38  C   ALA A   2      23.679   3.509  20.874  0.00  0.00    +0.241 C 
ATOM     39  O   ALA A   2      23.460   2.357  21.251  0.00  0.00    -0.273 OA
ATOM     40  N   GLY A   3      23.899   3.842  19.606  0.00  0.00    -0.295 N 
ATOM     41  H   GLY A   3      24.021   4.844  19.354  0.00  0.00    +0.150 HD
BRANCH  38  42
ATOM     42  CA  ALA A   2      23.714   4.661  21.858  0.00  0.00    +0.149 C 
ATOM     43  CB  ALA A   2      24.970   4.555  22.700  0.00  0.00    +0.031 C 
BRANCH  42  45
ATOM     44  C   ILE A   1      21.862   5.951  22.713  0.00  0.00    +0.238 C 
ATOM     45  N   ALA A   2      22.564   4.822  22.729  0.00  0.00    -0.297 N 
ATOM     46  H   ALA A   2      22.288   4.050  23.369  0.00  0.00    +0.150 HD
ATOM     47  O   ILE A   1      22.109   6.884  21.944  0.00  0.00    -0.274 OA
BRANCH  44  48
ATOM     48  CA  ILE A   1      20.716   6.047  23.707  0.00  0.00    +0.145 C 
BRANCH  48  49
ATOM     49  N   ILE A   1      20.990   7.198  24.553  0.00  0.00    -0.238 NA
ATOM     50  H   ILE A   1      20.768   8.151  24.200  0.00  0.00    +0.142 HD
ENDBRANCH  48  49
BRANCH  48  51
ATOM     51  CB  ILE A   1      19.371   6.216  22.978  0.00  0.00    +0.025 C 
ATOM     52  CG2 ILE A   1      19.169   5.086  21.972  0.00  0.00    +0.002 C 
BRANCH  51  53
ATOM     53  CG1 ILE A   1      18.240   6.243  24.016  0.00  0.00    +0.002 C 
ATOM     54  CD1 ILE A   1      16.863   6.479  23.439  0.00  0.00    +0.000 C 
ENDBRANCH  51  53
ENDBRANCH  48  51
ENDBRANCH  44  48
ENDBRANCH  42  45
ENDBRANCH  38  42
ENDBRANCH  37  40
ENDBRANCH  33  37
ENDBRANCH  32  35
BRANCH  32  55
ATOM     55  CB  ASN A   4      27.391  -0.267  17.832  0.00  0.00    +0.114 C 
BRANCH  55  56
ATOM     56  CG  ASN A   4      26.757  -0.766  19.120  0.00  0.00    +0.222 C 
ATOM     57  OD1 ASN A   4      26.911  -0.148  20.174  0.00  0.00    -0.275 OA
ATOM     58  ND2 ASN A   4      26.045  -1.882  19.045  0.00  0.00    -0.329 N 
ATOM     59 HD21 ASN A   4      25.591  -2.267  19.898  0.00  0.00    +0.145 HD
ATOM     60 HD22 ASN A   4      25.941  -2.372  18.134  0.00  0.00    +0.145 HD
ENDBRANCH  55  56
ENDBRANCH  32  55
ENDBRANCH   1  32
TORSDOF 23
REMARK  Name = ../refined-set-2016/1ro7/1ro7_pocket.pdb
REMARK  257 active torsions:
REMARK  status: ('A' for Active; 'I' for Inactive)
REMARK    1  A    between atoms: _1  and  _3
REMARK    2  A    between atoms: _3  and  _4
REMARK    3  A    between atoms: _3  and  _6
REMARK    4  A    between atoms: _6  and  _7
REMARK    5  A    between atoms: _10  and  _12
REMARK    6  A    between atoms: _12  and  _13
REMARK    7  A    between atoms: _16  and  _18
REMARK    8  A    between atoms: _18  and  _19
REMARK    9  A    between atoms: _21  and  _23
REMARK   10  A    between atoms: _23  and  _24
REMARK   11  A    between atoms: _23  and  _26
REMARK   12  A    between atoms: _26  and  _27
REMARK   13  A    between atoms: _32  and  _34
REMARK   14  A    between atoms: _34  and  _35
REMARK   15  A    between atoms: _38  and  _39
REMARK   16  A    between atoms: _44  and  _46
REMARK   17  A    between atoms: _46  and  _47
REMARK   18  A    between atoms: _46  and  _49
REMARK   19  A    between atoms: _49  and  _50
REMARK   20  A    between atoms: _52  and  _54
REMARK   21  A    between atoms: _54  and  _55
REMARK   22  A    between atoms: _54  and  _57
REMARK   23  A    between atoms: _57  and  _58
REMARK   24  A    between atoms: _61  and  _63
REMARK   25  A    between atoms: _63  and  _64
REMARK   26  A    between atoms: _63  and  _66
REMARK   27  A    between atoms: _66  and  _67
REMARK   28  A    between atoms: _67  and  _68
REMARK   29  A    between atoms: _68  and  _69
REMARK   30  A    between atoms: _78  and  _80
REMARK   31  A    between atoms: _80  and  _81
REMARK   32  A    between atoms: _80  and  _83
REMARK   33  A    between atoms: _85  and  _87
REMARK   34  A    between atoms: _87  and  _88
REMARK   35  A    between atoms: _87  and  _90
REMARK   36  A    between atoms: _90  and  _91
REMARK   37  A    between atoms: _96  and  _98
REMARK   38  A    between atoms: _98  and  _99
REMARK   39  A    between atoms: _98  and  _101
REMARK   40  A    between atoms: _101  and  _102
REMARK   41  A    between atoms: _102  and  _103
REMARK   42  A    between atoms: _108  and  _110
REMARK   43  A    between atoms: _110  and  _111
REMARK   44  A    between atoms: _110  and  _113
REMARK   45  A    between atoms: _113  and  _114
REMARK   46  A    between atoms: _120  and  _122
REMARK   47  A    between atoms: _122  and  _123
REMARK   48  A    between atoms: _122  and  _125
REMARK   49  A    between atoms: _125  and  _126
REMARK   50  A    between atoms: _131  and  _132
REMARK   51  A    between atoms: _134  and  _136
REMARK   52  A    between atoms: _136  and  _137
REMARK   53  A    between atoms: _136  and  _139
REMARK   54  A    between atoms: _139  and  _140
REMARK   55  A    between atoms: _146  and  _148
REMARK   56  A    between atoms: _148  and  _149
REMARK   57  A    between atoms: _148  and  _151
REMARK   58  A    between atoms: _151  and  _152
REMARK   59  A    between atoms: _157  and  _158
REMARK   60  A    between atoms: _160  and  _162
REMARK   61  A    between atoms: _162  and  _163
REMARK   62  A    between atoms: _162  and  _165
REMARK   63  A    between atoms: _165  and  _166
REMARK   64  A    between atoms: _172  and  _173
REMARK   65  A    between atoms: _178  and  _180
REMARK   66  A    between atoms: _180  and  _181
REMARK   67  A    between atoms: _180  and  _183
REMARK   68  A    between atoms: _183  and  _184
REMARK   69  A    between atoms: _186  and  _188
REMARK   70  A    between atoms: _188  and  _189
REMARK   71  A    between atoms: _188  and  _191
REMARK   72  A    between atoms: _191  and  _192
REMARK   73  A    between atoms: _195  and  _197
REMARK   74  A    between atoms: _197  and  _198
REMARK   75  A    between atoms: _197  and  _200
REMARK   76  A    between atoms: _200  and  _201
REMARK   77  A    between atoms: _207  and  _209
REMARK   78  A    between atoms: _209  and  _210
REMARK   79  A    between atoms: _209  and  _212
REMARK   80  A    between atoms: _212  and  _213
REMARK   81  A    between atoms: _213  and  _214
REMARK   82  A    between atoms: _219  and  _221
REMARK   83  A    between atoms: _221  and  _222
REMARK   84  A    between atoms: _221  and  _224
REMARK   85  A    between atoms: _224  and  _225
REMARK   86  A    between atoms: _227  and  _229
REMARK   87  A    between atoms: _229  and  _230
REMARK   88  A    between atoms: _229  and  _232
REMARK   89  A    between atoms: _232  and  _233
REMARK   90  A    between atoms: _238  and  _239
REMARK   91  A    between atoms: _241  and  _243
REMARK   92  A    between atoms: _243  and  _244
REMARK   93  A    between atoms: _243  and  _246
REMARK   94  A    between atoms: _246  and  _247
REMARK   95  A    between atoms: _247  and  _248
REMARK   96  A    between atoms: _248  and  _249
REMARK   97  A    between atoms: _258  and  _260
REMARK   98  A    between atoms: _260  and  _261
REMARK   99  A    between atoms: _260  and  _263
REMARK  100  A    between atoms: _263  and  _264
REMARK  101  A    between atoms: _267  and  _269
REMARK  102  A    between atoms: _269  and  _270
REMARK  103  A    between atoms: _269  and  _272
REMARK  104  A    between atoms: _272  and  _273
REMARK  105  A    between atoms: _276  and  _278
REMARK  106  A    between atoms: _278  and  _279
REMARK  107  A    between atoms: _278  and  _281
REMARK  108  A    between atoms: _281  and  _282
REMARK  109  A    between atoms: _284  and  _286
REMARK  110  A    between atoms: _286  and  _287
REMARK  111  A    between atoms: _289  and  _291
REMARK  112  A    between atoms: _291  and  _292
REMARK  113  A    between atoms: _291  and  _294
REMARK  114  A    between atoms: _297  and  _299
REMARK  115  A    between atoms: _299  and  _300
REMARK  116  A    between atoms: _299  and  _302
REMARK  117  A    between atoms: _302  and  _303
REMARK  118  A    between atoms: _308  and  _309
REMARK  119  A    between atoms: _311  and  _313
REMARK  120  A    between atoms: _313  and  _314
REMARK  121  A    between atoms: _313  and  _316
REMARK  122  A    between atoms: _316  and  _317
REMARK  123  A    between atoms: _317  and  _318
REMARK  124  A    between atoms: _320  and  _322
REMARK  125  A    between atoms: _322  and  _323
REMARK  126  A    between atoms: _322  and  _325
REMARK  127  A    between atoms: _325  and  _326
REMARK  128  A    between atoms: _328  and  _330
REMARK  129  A    between atoms: _330  and  _331
REMARK  130  A    between atoms: _333  and  _335
REMARK  131  A    between atoms: _335  and  _336
REMARK  132  A    between atoms: _335  and  _338
REMARK  133  A    between atoms: _338  and  _339
REMARK  134  A    between atoms: _342  and  _344
REMARK  135  A    between atoms: _344  and  _345
REMARK  136  A    between atoms: _344  and  _347
REMARK  137  A    between atoms: _347  and  _348
REMARK  138  A    between atoms: _351  and  _353
REMARK  139  A    between atoms: _353  and  _354
REMARK  140  A    between atoms: _353  and  _356
REMARK  141  A    between atoms: _356  and  _357
REMARK  142  A    between atoms: _363  and  _365
REMARK  143  A    between atoms: _365  and  _366
REMARK  144  A    between atoms: _365  and  _368
REMARK  145  A    between atoms: _368  and  _369
REMARK  146  A    between atoms: _374  and  _375
REMARK  147  A    between atoms: _377  and  _379
REMARK  148  A    between atoms: _379  and  _380
REMARK  149  A    between atoms: _379  and  _382
REMARK  150  A    between atoms: _382  and  _383
REMARK  151  A    between atoms: _383  and  _384
REMARK  152  A    between atoms: _389  and  _391
REMARK  153  A    between atoms: _391  and  _392
REMARK  154  A    between atoms: _391  and  _394
REMARK  155  A    between atoms: _394  and  _395
REMARK  156  A    between atoms: _400  and  _402
REMARK  157  A    between atoms: _402  and  _403
REMARK  158  A    between atoms: _405  and  _407
REMARK  159  A    between atoms: _407  and  _408
REMARK  160  A    between atoms: _407  and  _410
REMARK  161  A    between atoms: _410  and  _411
REMARK  162  A    between atoms: _413  and  _415
REMARK  163  A    between atoms: _415  and  _416
REMARK  164  A    between atoms: _415  and  _418
REMARK  165  A    between atoms: _418  and  _419
REMARK  166  A    between atoms: _421  and  _423
REMARK  167  A    between atoms: _423  and  _424
REMARK  168  A    between atoms: _423  and  _426
REMARK  169  A    between atoms: _426  and  _427
REMARK  170  A    between atoms: _432  and  _433
REMARK  171  A    between atoms: _435  and  _437
REMARK  172  A    between atoms: _437  and  _438
REMARK  173  A    between atoms: _441  and  _443
REMARK  174  A    between atoms: _443  and  _444
REMARK  175  A    between atoms: _443  and  _446
REMARK  176  A    between atoms: _446  and  _447
REMARK  177  A    between atoms: _453  and  _455
REMARK  178  A    between atoms: _455  and  _456
REMARK  179  A    between atoms: _455  and  _458
REMARK  180  A    between atoms: _458  and  _459
REMARK  181  A    between atoms: _462  and  _464
REMARK  182  A    between atoms: _464  and  _465
REMARK  183  A    between atoms: _464  and  _467
REMARK  184  A    between atoms: _467  and  _468
REMARK  185  A    between atoms: _471  and  _473
REMARK  186  A    between atoms: _473  and  _474
REMARK  187  A    between atoms: _473  and  _476
REMARK  188  A    between atoms: _476  and  _477
REMARK  189  A    between atoms: _480  and  _482
REMARK  190  A    between atoms: _482  and  _483
REMARK  191  A    between atoms: _487  and  _488
REMARK  192  A    between atoms: _493  and  _495
REMARK  193  A    between atoms: _495  and  _496
REMARK  194  A    between atoms: _495  and  _498
REMARK  195  A    between atoms: _498  and  _499
REMARK  196  A    between atoms: _504  and  _506
REMARK  197  A    between atoms: _506  and  _507
REMARK  198  A    between atoms: _506  and  _509
REMARK  199  A    between atoms: _509  and  _510
REMARK  200  A    between atoms: _516  and  _518
REMARK  201  A    between atoms: _518  and  _519
REMARK  202  A    between atoms: _518  and  _521
REMARK  203  A    between atoms: _521  and  _522
REMARK  204  A    between atoms: _522  and  _523
REMARK  205  A    between atoms: _523  and  _524
REMARK  206  A    between atoms: _524  and  _525
REMARK  207  A    between atoms: _529  and  _531
REMARK  208  A    between atoms: _531  and  _532
REMARK  209  A    between atoms: _531  and  _534
REMARK  210  A    between atoms: _534  and  _535
REMARK  211  A    between atoms: _540  and  _542
REMARK  212  A    between atoms: _542  and  _543
REMARK  213  A    between atoms: _542  and  _545
REMARK  214  A    between atoms: _545  and  _546
REMARK  215  A    between atoms: _551  and  _553
REMARK  216  A    between atoms: _553  and  _554
REMARK  217  A    between atoms: _553  and  _556
REMARK  218  A    between atoms: _556  and  _557
REMARK  219  A    between atoms: _559  and  _561
REMARK  220  A    between atoms: _561  and  _562
REMARK  221  A    between atoms: _561  and  _564
REMARK  222  A    between atoms: _564  and  _565
REMARK  223  A    between atoms: _570  and  _572
REMARK  224  A    between atoms: _572  and  _573
REMARK  225  A    between atoms: _572  and  _575
REMARK  226  A    between atoms: _575  and  _576
REMARK  227  A    between atoms: _581  and  _582
REMARK  228  A    between atoms: _584  and  _586
REMARK  229  A    between atoms: _586  and  _587
REMARK  230  A    between atoms: _586  and  _589
REMARK  231  A    between atoms: _589  and  _590
REMARK  232  A    between atoms: _593  and  _595
REMARK  233  A    between atoms: _595  and  _596
REMARK  234  A    between atoms: _598  and  _600
REMARK  235  A    between atoms: _600  and  _601
REMARK  236  A    between atoms: _600  and  _603
REMARK  237  A    between atoms: _603  and  _604
REMARK  238  A    between atoms: _609  and  _611
REMARK  239  A    between atoms: _611  and  _612
REMARK  240  A    between atoms: _611  and  _614
REMARK  241  A    between atoms: _614  and  _615
REMARK  242  A    between atoms: _617  and  _619
REMARK  243  A    between atoms: _619  and  _620
REMARK  244  A    between atoms: _619  and  _622
REMARK  245  A    between atoms: _622  and  _623
REMARK  246  A    between atoms: _626  and  _628
REMARK  247  A    between atoms: _628  and  _629
REMARK  248  A    between atoms: _628  and  _631
REMARK  249  A    between atoms: _631  and  _632
REMARK  250  A    between atoms: _634  and  _636
REMARK  251  A    between atoms: _636  and  _637
REMARK  252  A    between atoms: _636  and  _639
REMARK  253  A    between atoms: _639  and  _640
REMARK  254  A    between atoms: _643  and  _645
REMARK  255  A    between atoms: _645  and  _646
REMARK  256  A    between atoms: _645  and  _648
REMARK  257  A    between atoms: _648  and  _649
REMARK                            x       y       z     vdW  Elec       q    Type
REMARK                         _______ _______ _______ _____ _____    ______ ____
ROOT
ATOM      1  C   ASN A   3      24.846  -5.846  20.625  0.00  0.00    +0.241 C 
ATOM      2  O   ASN A   3      25.076  -6.255  21.763  0.00  0.00    -0.273 OA
ATOM      3  N   GLN A   4      25.819  -5.608  19.748  0.00  0.00    -0.297 N 
ATOM      4  H   GLN A   4      25.589  -5.255  18.797  0.00  0.00    +0.150 HD
ENDROOT
BRANCH   3   5
ATOM      5  CA  GLN A   4      27.214  -5.844  20.125  0.00  0.00    +0.149 C 
BRANCH   5   6
ATOM      6  C   GLN A   4      27.907  -4.660  20.787  0.00  0.00    +0.241 C 
ATOM      7  N   PHE A   5      27.220  -4.011  21.721  0.00  0.00    -0.297 N 
ATOM      8  H   PHE A   5      26.259  -4.328  21.963  0.00  0.00    +0.150 HD
ATOM      9  O   GLN A   4      29.057  -4.355  20.477  0.00  0.00    -0.273 OA
BRANCH   7  10
ATOM     10  CA  PHE A   5      27.791  -2.862  22.412  0.00  0.00    +0.153 C 
BRANCH  10  11
ATOM     11  C   PHE A   5      29.063  -3.234  23.172  0.00  0.00    +0.241 C 
ATOM     12  N   TYR A   6      29.090  -4.446  23.726  0.00  0.00    -0.298 N 
ATOM     13  H   TYR A   6      28.272  -5.077  23.605  0.00  0.00    +0.150 HD
ATOM     14  O   PHE A   5      30.003  -2.440  23.246  0.00  0.00    -0.273 OA
BRANCH  12  15
ATOM     15  CA  TYR A   6      30.238  -4.911  24.498  0.00  0.00    +0.141 C 
BRANCH  15  16
ATOM     16  C   TYR A   6      31.513  -5.111  23.681  0.00  0.00    +0.227 C 
ATOM     17  O   TYR A   6      32.562  -5.413  24.240  0.00  0.00    -0.286 OA
ENDBRANCH  15  16
BRANCH  15  18
ATOM     18  CB  TYR A   6      29.890  -6.200  25.261  0.00  0.00    +0.054 C 
BRANCH  18  19
ATOM     19  CG  TYR A   6      29.270  -7.291  24.421  0.00  0.00    -0.020 A 
ATOM     20  CD2 TYR A   6      30.014  -8.406  24.028  0.00  0.00    -0.001 A 
ATOM     21  CE2 TYR A   6      29.446  -9.408  23.231  0.00  0.00    +0.036 A 
ATOM     22  CZ  TYR A   6      28.122  -9.294  22.824  0.00  0.00    +0.134 A 
ATOM     23  CE1 TYR A   6      27.365  -8.202  23.207  0.00  0.00    +0.036 A 
ATOM     24  CD1 TYR A   6      27.941  -7.206  24.002  0.00  0.00    -0.001 A 
BRANCH  22  25
ATOM     25  OH  TYR A   6      27.568 -10.251  22.004  0.00  0.00    -0.506 OA
ATOM     26  HH  TYR A   6      26.625 -10.016  21.814  0.00  0.00    +0.292 HD
ENDBRANCH  22  25
ENDBRANCH  18  19
ENDBRANCH  15  18
ENDBRANCH  12  15
ENDBRANCH  10  11
BRANCH  10  27
ATOM     27  CB  PHE A   5      26.759  -2.269  23.382  0.00  0.00    +0.055 C 
BRANCH  27  28
ATOM     28  CG  PHE A   5      26.442  -3.157  24.557  0.00  0.00    -0.020 A 
ATOM     29  CD2 PHE A   5      27.190  -3.077  25.732  0.00  0.00    -0.004 A 
ATOM     30  CE2 PHE A   5      26.905  -3.899  26.822  0.00  0.00    -0.000 A 
ATOM     31  CZ  PHE A   5      25.863  -4.816  26.740  0.00  0.00    -0.000 A 
ATOM     32  CE1 PHE A   5      25.108  -4.907  25.568  0.00  0.00    -0.000 A 
ATOM     33  CD1 PHE A   5      25.400  -4.080  24.489  0.00  0.00    -0.004 A 
ENDBRANCH  27  28
ENDBRANCH  10  27
ENDBRANCH   7  10
ENDBRANCH   5   6
BRANCH   5  34
ATOM     34  CB  GLN A   4      28.033  -6.296  18.909  0.00  0.00    +0.039 C 
BRANCH  34  35
ATOM     35  CG  GLN A   4      27.686  -7.691  18.387  0.00  0.00    +0.087 C 
BRANCH  35  36
ATOM     36  CD  GLN A   4      26.379  -7.735  17.624  0.00  0.00    +0.219 C 
ATOM     37  OE1 GLN A   4      25.402  -8.333  18.074  0.00  0.00    -0.275 OA
ATOM     38  NE2 GLN A   4      26.353  -7.095  16.456  0.00  0.00    -0.329 N 
ATOM     39 HE21 GLN A   4      27.203  -6.602  16.114  0.00  0.00    +0.145 HD
ATOM     40 HE22 GLN A   4      25.483  -7.088  15.886  0.00  0.00    +0.145 HD
ENDBRANCH  35  36
ENDBRANCH  34  35
ENDBRANCH   5  34
ENDBRANCH   3   5
BRANCH   1  41
ATOM     41  CA  ASN A   3      23.404  -5.613  20.176  0.00  0.00    +0.158 C 
BRANCH  41  44
ATOM     42  C   CYS A   2      23.142  -3.440  21.275  0.00  0.00    +0.242 C 
ATOM     43  O   CYS A   2      24.325  -3.118  21.155  0.00  0.00    -0.273 OA
ATOM     44  N   ASN A   3      22.642  -4.605  20.887  0.00  0.00    -0.297 N 
ATOM     45  H   ASN A   3      21.646  -4.808  21.105  0.00  0.00    +0.150 HD
BRANCH  42  46
ATOM     46  CA  CYS A   2      22.132  -2.524  21.933  0.00  0.00    +0.160 C 
BRANCH  46  49
ATOM     47  C   ARG A   1      22.168  -1.118  23.888  0.00  0.00    +0.238 C 
ATOM     48  O   ARG A   1      21.101  -1.593  24.276  0.00  0.00    -0.274 OA
ATOM     49  N   CYS A   2      22.750  -1.497  22.756  0.00  0.00    -0.297 N 
ATOM     50  H   CYS A   2      23.646  -1.060  22.459  0.00  0.00    +0.150 HD
BRANCH  47  51
ATOM     51  CA  ARG A   1      22.873  -0.038  24.702  0.00  0.00    +0.145 C 
BRANCH  51  52
ATOM     52  N   ARG A   1      21.911   0.502  25.658  0.00  0.00    -0.238 NA
ATOM     53  H   ARG A   1      21.490  -0.127  26.371  0.00  0.00    +0.142 HD
ENDBRANCH  51  52
BRANCH  51  54
ATOM     54  CB  ARG A   1      24.087  -0.640  25.423  0.00  0.00    +0.030 C 
BRANCH  54  55
ATOM     55  CG  ARG A   1      24.874   0.335  26.309  0.00  0.00    +0.045 C 
BRANCH  55  56
ATOM     56  CD  ARG A   1      25.307   1.593  25.544  0.00  0.00    +0.174 C 
BRANCH  56  57
ATOM     57  NE  ARG A   1      26.249   1.330  24.455  0.00  0.00    -0.265 N 
ATOM     58  CZ  ARG A   1      27.556   1.151  24.616  0.00  0.00    +0.342 C 
ATOM     59  NH2 ARG A   1      28.091   1.208  25.825  0.00  0.00    -0.292 N 
ATOM     60 HH21 ARG A   1      27.488   1.393  26.652  0.00  0.00    +0.255 HD
ATOM     61 HH22 ARG A   1      29.114   1.068  25.948  0.00  0.00    +0.255 HD
ATOM     62  NH1 ARG A   1      28.330   0.919  23.566  0.00  0.00    -0.292 N 
ATOM     63 HH11 ARG A   1      29.353   0.779  23.694  0.00  0.00    +0.255 HD
ATOM     64 HH12 ARG A   1      27.915   0.877  22.613  0.00  0.00    +0.255 HD
ATOM     65  HE  ARG A   1      25.869   1.280  23.488  0.00  0.00    +0.259 HD
ENDBRANCH  56  57
ENDBRANCH  55  56
ENDBRANCH  54  55
ENDBRANCH  51  54
ENDBRANCH  47  51
ENDBRANCH  46  49
BRANCH  46  66
ATOM     66  CB  CYS A   2      21.262  -1.896  20.841  0.00  0.00    +0.098 C 
ATOM     67  SG  CYS A   2      22.178  -1.038  19.517  0.00  0.00    -0.080 S 
ENDBRANCH  46  66
ENDBRANCH  42  46
ENDBRANCH  41  44
BRANCH  41  68
ATOM     68  CB  ASN A   3      23.317  -5.286  18.684  0.00  0.00    +0.114 C 
BRANCH  68  69
ATOM     69  CG  ASN A   3      21.879  -5.092  18.226  0.00  0.00    +0.222 C 
ATOM     70  OD1 ASN A   3      20.957  -5.706  18.776  0.00  0.00    -0.275 OA
ATOM     71  ND2 ASN A   3      21.677  -4.256  17.215  0.00  0.00    -0.329 N 
ATOM     72 HD21 ASN A   3      20.714  -4.097  16.856  0.00  0.00    +0.145 HD
ATOM     73 HD22 ASN A   3      22.482  -3.760  16.782  0.00  0.00    +0.145 HD
ENDBRANCH  68  69
ENDBRANCH  41  68
ENDBRANCH   1  41
TORSDOF 27
REMARK  Name = ../refined-set-2016/1ro7/1ro7_pocket.pdb
REMARK  257 active torsions:
REMARK  status: ('A' for Active; 'I' for Inactive)
REMARK    1  A    between atoms: _1  and  _3
REMARK    2  A    between atoms: _3  and  _4
REMARK    3  A    between atoms: _3  and  _6
REMARK    4  A    between atoms: _6  and  _7
REMARK    5  A    between atoms: _10  and  _12
REMARK    6  A    between atoms: _12  and  _13
REMARK    7  A    between atoms: _16  and  _18
REMARK    8  A    between atoms: _18  and  _19
REMARK    9  A    between atoms: _21  and  _23
REMARK   10  A    between atoms: _23  and  _24
REMARK   11  A    between atoms: _23  and  _26
REMARK   12  A    between atoms: _26  and  _27
REMARK   13  A    between atoms: _32  and  _34
REMARK   14  A    between atoms: _34  and  _35
REMARK   15  A    between atoms: _38  and  _39
REMARK   16  A    between atoms: _44  and  _46
REMARK   17  A    between atoms: _46  and  _47
REMARK   18  A    between atoms: _46  and  _49
REMARK   19  A    between atoms: _49  and  _50
REMARK   20  A    between atoms: _52  and  _54
REMARK   21  A    between atoms: _54  and  _55
REMARK   22  A    between atoms: _54  and  _57
REMARK   23  A    between atoms: _57  and  _58
REMARK   24  A    between atoms: _61  and  _63
REMARK   25  A    between atoms: _63  and  _64
REMARK   26  A    between atoms: _63  and  _66
REMARK   27  A    between atoms: _66  and  _67
REMARK   28  A    between atoms: _67  and  _68
REMARK   29  A    between atoms: _68  and  _69
REMARK   30  A    between atoms: _78  and  _80
REMARK   31  A    between atoms: _80  and  _81
REMARK   32  A    between atoms: _80  and  _83
REMARK   33  A    between atoms: _85  and  _87
REMARK   34  A    between atoms: _87  and  _88
REMARK   35  A    between atoms: _87  and  _90
REMARK   36  A    between atoms: _90  and  _91
REMARK   37  A    between atoms: _96  and  _98
REMARK   38  A    between atoms: _98  and  _99
REMARK   39  A    between atoms: _98  and  _101
REMARK   40  A    between atoms: _101  and  _102
REMARK   41  A    between atoms: _102  and  _103
REMARK   42  A    between atoms: _108  and  _110
REMARK   43  A    between atoms: _110  and  _111
REMARK   44  A    between atoms: _110  and  _113
REMARK   45  A    between atoms: _113  and  _114
REMARK   46  A    between atoms: _120  and  _122
REMARK   47  A    between atoms: _122  and  _123
REMARK   48  A    between atoms: _122  and  _125
REMARK   49  A    between atoms: _125  and  _126
REMARK   50  A    between atoms: _131  and  _132
REMARK   51  A    between atoms: _134  and  _136
REMARK   52  A    between atoms: _136  and  _137
REMARK   53  A    between atoms: _136  and  _139
REMARK   54  A    between atoms: _139  and  _140
REMARK   55  A    between atoms: _146  and  _148
REMARK   56  A    between atoms: _148  and  _149
REMARK   57  A    between atoms: _148  and  _151
REMARK   58  A    between atoms: _151  and  _152
REMARK   59  A    between atoms: _157  and  _158
REMARK   60  A    between atoms: _160  and  _162
REMARK   61  A    between atoms: _162  and  _163
REMARK   62  A    between atoms: _162  and  _165
REMARK   63  A    between atoms: _165  and  _166
REMARK   64  A    between atoms: _172  and  _173
REMARK   65  A    between atoms: _178  and  _180
REMARK   66  A    between atoms: _180  and  _181
REMARK   67  A    between atoms: _180  and  _183
REMARK   68  A    between atoms: _183  and  _184
REMARK   69  A    between atoms: _186  and  _188
REMARK   70  A    between atoms: _188  and  _189
REMARK   71  A    between atoms: _188  and  _191
REMARK   72  A    between atoms: _191  and  _192
REMARK   73  A    between atoms: _195  and  _197
REMARK   74  A    between atoms: _197  and  _198
REMARK   75  A    between atoms: _197  and  _200
REMARK   76  A    between atoms: _200  and  _201
REMARK   77  A    between atoms: _207  and  _209
REMARK   78  A    between atoms: _209  and  _210
REMARK   79  A    between atoms: _209  and  _212
REMARK   80  A    between atoms: _212  and  _213
REMARK   81  A    between atoms: _213  and  _214
REMARK   82  A    between atoms: _219  and  _221
REMARK   83  A    between atoms: _221  and  _222
REMARK   84  A    between atoms: _221  and  _224
REMARK   85  A    between atoms: _224  and  _225
REMARK   86  A    between atoms: _227  and  _229
REMARK   87  A    between atoms: _229  and  _230
REMARK   88  A    between atoms: _229  and  _232
REMARK   89  A    between atoms: _232  and  _233
REMARK   90  A    between atoms: _238  and  _239
REMARK   91  A    between atoms: _241  and  _243
REMARK   92  A    between atoms: _243  and  _244
REMARK   93  A    between atoms: _243  and  _246
REMARK   94  A    between atoms: _246  and  _247
REMARK   95  A    between atoms: _247  and  _248
REMARK   96  A    between atoms: _248  and  _249
REMARK   97  A    between atoms: _258  and  _260
REMARK   98  A    between atoms: _260  and  _261
REMARK   99  A    between atoms: _260  and  _263
REMARK  100  A    between atoms: _263  and  _264
REMARK  101  A    between atoms: _267  and  _269
REMARK  102  A    between atoms: _269  and  _270
REMARK  103  A    between atoms: _269  and  _272
REMARK  104  A    between atoms: _272  and  _273
REMARK  105  A    between atoms: _276  and  _278
REMARK  106  A    between atoms: _278  and  _279
REMARK  107  A    between atoms: _278  and  _281
REMARK  108  A    between atoms: _281  and  _282
REMARK  109  A    between atoms: _284  and  _286
REMARK  110  A    between atoms: _286  and  _287
REMARK  111  A    between atoms: _289  and  _291
REMARK  112  A    between atoms: _291  and  _292
REMARK  113  A    between atoms: _291  and  _294
REMARK  114  A    between atoms: _297  and  _299
REMARK  115  A    between atoms: _299  and  _300
REMARK  116  A    between atoms: _299  and  _302
REMARK  117  A    between atoms: _302  and  _303
REMARK  118  A    between atoms: _308  and  _309
REMARK  119  A    between atoms: _311  and  _313
REMARK  120  A    between atoms: _313  and  _314
REMARK  121  A    between atoms: _313  and  _316
REMARK  122  A    between atoms: _316  and  _317
REMARK  123  A    between atoms: _317  and  _318
REMARK  124  A    between atoms: _320  and  _322
REMARK  125  A    between atoms: _322  and  _323
REMARK  126  A    between atoms: _322  and  _325
REMARK  127  A    between atoms: _325  and  _326
REMARK  128  A    between atoms: _328  and  _330
REMARK  129  A    between atoms: _330  and  _331
REMARK  130  A    between atoms: _333  and  _335
REMARK  131  A    between atoms: _335  and  _336
REMARK  132  A    between atoms: _335  and  _338
REMARK  133  A    between atoms: _338  and  _339
REMARK  134  A    between atoms: _342  and  _344
REMARK  135  A    between atoms: _344  and  _345
REMARK  136  A    between atoms: _344  and  _347
REMARK  137  A    between atoms: _347  and  _348
REMARK  138  A    between atoms: _351  and  _353
REMARK  139  A    between atoms: _353  and  _354
REMARK  140  A    between atoms: _353  and  _356
REMARK  141  A    between atoms: _356  and  _357
REMARK  142  A    between atoms: _363  and  _365
REMARK  143  A    between atoms: _365  and  _366
REMARK  144  A    between atoms: _365  and  _368
REMARK  145  A    between atoms: _368  and  _369
REMARK  146  A    between atoms: _374  and  _375
REMARK  147  A    between atoms: _377  and  _379
REMARK  148  A    between atoms: _379  and  _380
REMARK  149  A    between atoms: _379  and  _382
REMARK  150  A    between atoms: _382  and  _383
REMARK  151  A    between atoms: _383  and  _384
REMARK  152  A    between atoms: _389  and  _391
REMARK  153  A    between atoms: _391  and  _392
REMARK  154  A    between atoms: _391  and  _394
REMARK  155  A    between atoms: _394  and  _395
REMARK  156  A    between atoms: _400  and  _402
REMARK  157  A    between atoms: _402  and  _403
REMARK  158  A    between atoms: _405  and  _407
REMARK  159  A    between atoms: _407  and  _408
REMARK  160  A    between atoms: _407  and  _410
REMARK  161  A    between atoms: _410  and  _411
REMARK  162  A    between atoms: _413  and  _415
REMARK  163  A    between atoms: _415  and  _416
REMARK  164  A    between atoms: _415  and  _418
REMARK  165  A    between atoms: _418  and  _419
REMARK  166  A    between atoms: _421  and  _423
REMARK  167  A    between atoms: _423  and  _424
REMARK  168  A    between atoms: _423  and  _426
REMARK  169  A    between atoms: _426  and  _427
REMARK  170  A    between atoms: _432  and  _433
REMARK  171  A    between atoms: _435  and  _437
REMARK  172  A    between atoms: _437  and  _438
REMARK  173  A    between atoms: _441  and  _443
REMARK  174  A    between atoms: _443  and  _444
REMARK  175  A    between atoms: _443  and  _446
REMARK  176  A    between atoms: _446  and  _447
REMARK  177  A    between atoms: _453  and  _455
REMARK  178  A    between atoms: _455  and  _456
REMARK  179  A    between atoms: _455  and  _458
REMARK  180  A    between atoms: _458  and  _459
REMARK  181  A    between atoms: _462  and  _464
REMARK  182  A    between atoms: _464  and  _465
REMARK  183  A    between atoms: _464  and  _467
REMARK  184  A    between atoms: _467  and  _468
REMARK  185  A    between atoms: _471  and  _473
REMARK  186  A    between atoms: _473  and  _474
REMARK  187  A    between atoms: _473  and  _476
REMARK  188  A    between atoms: _476  and  _477
REMARK  189  A    between atoms: _480  and  _482
REMARK  190  A    between atoms: _482  and  _483
REMARK  191  A    between atoms: _487  and  _488
REMARK  192  A    between atoms: _493  and  _495
REMARK  193  A    between atoms: _495  and  _496
REMARK  194  A    between atoms: _495  and  _498
REMARK  195  A    between atoms: _498  and  _499
REMARK  196  A    between atoms: _504  and  _506
REMARK  197  A    between atoms: _506  and  _507
REMARK  198  A    between atoms: _506  and  _509
REMARK  199  A    between atoms: _509  and  _510
REMARK  200  A    between atoms: _516  and  _518
REMARK  201  A    between atoms: _518  and  _519
REMARK  202  A    between atoms: _518  and  _521
REMARK  203  A    between atoms: _521  and  _522
REMARK  204  A    between atoms: _522  and  _523
REMARK  205  A    between atoms: _523  and  _524
REMARK  206  A    between atoms: _524  and  _525
REMARK  207  A    between atoms: _529  and  _531
REMARK  208  A    between atoms: _531  and  _532
REMARK  209  A    between atoms: _531  and  _534
REMARK  210  A    between atoms: _534  and  _535
REMARK  211  A    between atoms: _540  and  _542
REMARK  212  A    between atoms: _542  and  _543
REMARK  213  A    between atoms: _542  and  _545
REMARK  214  A    between atoms: _545  and  _546
REMARK  215  A    between atoms: _551  and  _553
REMARK  216  A    between atoms: _553  and  _554
REMARK  217  A    between atoms: _553  and  _556
REMARK  218  A    between atoms: _556  and  _557
REMARK  219  A    between atoms: _559  and  _561
REMARK  220  A    between atoms: _561  and  _562
REMARK  221  A    between atoms: _561  and  _564
REMARK  222  A    between atoms: _564  and  _565
REMARK  223  A    between atoms: _570  and  _572
REMARK  224  A    between atoms: _572  and  _573
REMARK  225  A    between atoms: _572  and  _575
REMARK  226  A    between atoms: _575  and  _576
REMARK  227  A    between atoms: _581  and  _582
REMARK  228  A    between atoms: _584  and  _586
REMARK  229  A    between atoms: _586  and  _587
REMARK  230  A    between atoms: _586  and  _589
REMARK  231  A    between atoms: _589  and  _590
REMARK  232  A    between atoms: _593  and  _595
REMARK  233  A    between atoms: _595  and  _596
REMARK  234  A    between atoms: _598  and  _600
REMARK  235  A    between atoms: _600  and  _601
REMARK  236  A    between atoms: _600  and  _603
REMARK  237  A    between atoms: _603  and  _604
REMARK  238  A    between atoms: _609  and  _611
REMARK  239  A    between atoms: _611  and  _612
REMARK  240  A    between atoms: _611  and  _614
REMARK  241  A    between atoms: _614  and  _615
REMARK  242  A    between atoms: _617  and  _619
REMARK  243  A    between atoms: _619  and  _620
REMARK  244  A    between atoms: _619  and  _622
REMARK  245  A    between atoms: _622  and  _623
REMARK  246  A    between atoms: _626  and  _628
REMARK  247  A    between atoms: _628  and  _629
REMARK  248  A    between atoms: _628  and  _631
REMARK  249  A    between atoms: _631  and  _632
REMARK  250  A    between atoms: _634  and  _636
REMARK  251  A    between atoms: _636  and  _637
REMARK  252  A    between atoms: _636  and  _639
REMARK  253  A    between atoms: _639  and  _640
REMARK  254  A    between atoms: _643  and  _645
REMARK  255  A    between atoms: _645  and  _646
REMARK  256  A    between atoms: _645  and  _648
REMARK  257  A    between atoms: _648  and  _649
REMARK                            x       y       z     vdW  Elec       q    Type
REMARK                         _______ _______ _______ _____ _____    ______ ____
ROOT
ATOM      1  C   ASN A   3      16.719  -9.918  18.440  0.00  0.00    +0.244 C 
ATOM      2  O   ASN A   3      17.465 -10.742  18.972  0.00  0.00    -0.273 OA
ATOM      3  N   PRO A   4      15.479 -10.229  18.055  0.00  0.00    -0.272 N 
ATOM      4  CA  PRO A   4      14.919 -11.574  18.208  0.00  0.00    +0.152 C 
ATOM      5  CB  PRO A   4      13.596 -11.477  17.459  0.00  0.00    +0.031 C 
ATOM      6  CG  PRO A   4      13.165 -10.075  17.754  0.00  0.00    +0.024 C 
ATOM      7  CD  PRO A   4      14.451  -9.280  17.586  0.00  0.00    +0.094 C 
ENDROOT
BRANCH   4   8
ATOM      8  C   PRO A   4      15.809 -12.664  17.615  0.00  0.00    +0.241 C 
ATOM      9  O   PRO A   4      15.977 -13.727  18.212  0.00  0.00    -0.273 OA
ATOM     10  N   SER A   5      16.371 -12.387  16.442  0.00  0.00    -0.295 N 
ATOM     11  H   SER A   5      16.207 -11.452  16.018  0.00  0.00    +0.150 HD
BRANCH  10  12
ATOM     12  CA  SER A   5      17.212 -13.348  15.724  0.00  0.00    +0.178 C 
BRANCH  12  13
ATOM     13  C   SER A   5      18.383 -13.922  16.516  0.00  0.00    +0.243 C 
ATOM     14  N   LEU A   6      18.953 -13.116  17.403  0.00  0.00    -0.297 N 
ATOM     15  H   LEU A   6      18.583 -12.152  17.528  0.00  0.00    +0.150 HD
ATOM     16  O   SER A   5      18.767 -15.079  16.317  0.00  0.00    -0.273 OA
BRANCH  14  17
ATOM     17  CA  LEU A   6      20.089 -13.556  18.206  0.00  0.00    +0.149 C 
BRANCH  17  18
ATOM     18  C   LEU A   6      19.840 -13.399  19.697  0.00  0.00    +0.241 C 
ATOM     19  O   LEU A   6      20.784 -13.451  20.494  0.00  0.00    -0.273 OA
ATOM     20  N   PHE A   7      18.580 -13.217  20.085  0.00  0.00    -0.298 N 
ATOM     21  H   PHE A   7      17.810 -13.212  19.386  0.00  0.00    +0.150 HD
BRANCH  20  22
ATOM     22  CA  PHE A   7      18.292 -13.025  21.499  0.00  0.00    +0.141 C 
BRANCH  22  23
ATOM     23  C   PHE A   7      18.793 -14.175  22.370  0.00  0.00    +0.227 C 
ATOM     24  O   PHE A   7      19.377 -13.957  23.428  0.00  0.00    -0.286 OA
ENDBRANCH  22  23
BRANCH  22  25
ATOM     25  CB  PHE A   7      16.797 -12.836  21.741  0.00  0.00    +0.054 C 
BRANCH  25  26
ATOM     26  CG  PHE A   7      16.498 -12.300  23.099  0.00  0.00    -0.020 A 
ATOM     27  CD2 PHE A   7      16.282 -13.163  24.167  0.00  0.00    -0.004 A 
ATOM     28  CE2 PHE A   7      16.109 -12.668  25.456  0.00  0.00    -0.000 A 
ATOM     29  CZ  PHE A   7      16.151 -11.291  25.684  0.00  0.00    -0.000 A 
ATOM     30  CE1 PHE A   7      16.362 -10.421  24.614  0.00  0.00    -0.000 A 
ATOM     31  CD1 PHE A   7      16.532 -10.927  23.334  0.00  0.00    -0.004 A 
ENDBRANCH  25  26
ENDBRANCH  22  25
ENDBRANCH  20  22
ENDBRANCH  17  18
BRANCH  17  32
ATOM     32  CB  LEU A   6      21.343 -12.757  17.818  0.00  0.00    +0.029 C 
BRANCH  32  33
ATOM     33  CG  LEU A   6      21.826 -12.938  16.374  0.00  0.00    +0.002 C 
ATOM     34  CD2 LEU A   6      23.124 -12.182  16.167  0.00  0.00    +0.000 C 
ATOM     35  CD1 LEU A   6      22.037 -14.416  16.086  0.00  0.00    +0.000 C 
ENDBRANCH  32  33
ENDBRANCH  17  32
ENDBRANCH  14  17
ENDBRANCH  12  13
BRANCH  12  36
ATOM     36  CB  SER A   5      17.752 -12.714  14.437  0.00  0.00    +0.166 C 
BRANCH  36  37
ATOM     37  OG  SER A   5      18.628 -11.639  14.735  0.00  0.00    -0.380 OA
ATOM     38  H   SER A   5      18.964 -11.245  13.891  0.00  0.00    +0.211 HD
ENDBRANCH  36  37
ENDBRANCH  12  36
ENDBRANCH  10  12
ENDBRANCH   4   8
BRANCH   1  39
ATOM     39  CA  ASN A   3      17.172  -8.479  18.212  0.00  0.00    +0.158 C 
BRANCH  39  42
ATOM     40  C   TYR A   2      17.728  -7.820  20.460  0.00  0.00    +0.241 C 
ATOM     41  O   TYR A   2      16.546  -7.889  20.808  0.00  0.00    -0.273 OA
ATOM     42  N   ASN A   3      18.134  -8.088  19.223  0.00  0.00    -0.297 N 
ATOM     43  H   ASN A   3      19.143  -8.017  18.980  0.00  0.00    +0.150 HD
BRANCH  40  44
ATOM     44  CA  TYR A   2      18.805  -7.428  21.451  0.00  0.00    +0.153 C 
BRANCH  44  46
ATOM     45  C   PHE A   1      19.010  -5.308  22.621  0.00  0.00    +0.239 C 
ATOM     46  N   TYR A   2      18.301  -6.402  22.360  0.00  0.00    -0.297 N 
ATOM     47  H   TYR A   2      17.372  -6.529  22.811  0.00  0.00    +0.150 HD
ATOM     48  O   PHE A   1      20.104  -5.084  22.115  0.00  0.00    -0.274 OA
BRANCH  45  49
ATOM     49  CA  PHE A   1      18.377  -4.302  23.569  0.00  0.00    +0.149 C 
BRANCH  49  50
ATOM     50  N   PHE A   1      19.338  -3.794  24.552  0.00  0.00    -0.238 NA
ATOM     51  H   PHE A   1      20.134  -3.211  24.224  0.00  0.00    +0.142 HD
ENDBRANCH  49  50
BRANCH  49  52
ATOM     52  CB  PHE A   1      17.810  -3.157  22.717  0.00  0.00    +0.053 C 
BRANCH  52  53
ATOM     53  CG  PHE A   1      16.960  -2.185  23.479  0.00  0.00    -0.020 A 
ATOM     54  CD2 PHE A   1      17.519  -1.363  24.448  0.00  0.00    -0.004 A 
ATOM     55  CE2 PHE A   1      16.733  -0.453  25.148  0.00  0.00    -0.000 A 
ATOM     56  CZ  PHE A   1      15.372  -0.362  24.878  0.00  0.00    -0.000 A 
ATOM     57  CE1 PHE A   1      14.802  -1.182  23.911  0.00  0.00    -0.000 A 
ATOM     58  CD1 PHE A   1      15.600  -2.088  23.217  0.00  0.00    -0.004 A 
ENDBRANCH  52  53
ENDBRANCH  49  52
ENDBRANCH  45  49
ENDBRANCH  44  46
BRANCH  44  59
ATOM     59  CB  TYR A   2      19.236  -8.679  22.225  0.00  0.00    +0.055 C 
BRANCH  59  60
ATOM     60  CG  TYR A   2      20.339  -8.443  23.226  0.00  0.00    -0.020 A 
ATOM     61  CD2 TYR A   2      20.140  -8.695  24.583  0.00  0.00    -0.001 A 
ATOM     62  CE2 TYR A   2      21.168  -8.520  25.504  0.00  0.00    +0.036 A 
ATOM     63  CZ  TYR A   2      22.411  -8.085  25.065  0.00  0.00    +0.134 A 
ATOM     64  CE1 TYR A   2      22.627  -7.824  23.727  0.00  0.00    +0.036 A 
ATOM     65  CD1 TYR A   2      21.594  -8.003  22.815  0.00  0.00    -0.001 A 
BRANCH  63  66
ATOM     66  OH  TYR A   2      23.445  -7.941  25.957  0.00  0.00    -0.506 OA
ATOM     67  HH  TYR A   2      24.184  -8.550  25.705  0.00  0.00    +0.292 HD
ENDBRANCH  63  66
ENDBRANCH  59  60
ENDBRANCH  44  59
ENDBRANCH  40  44
ENDBRANCH  39  42
BRANCH  39  68
ATOM     68  CB  ASN A   3      17.778  -8.350  16.814  0.00  0.00    +0.114 C 
BRANCH  68  69
ATOM     69  CG  ASN A   3      18.057  -6.911  16.435  0.00  0.00    +0.222 C 
ATOM     70  OD1 ASN A   3      17.407  -5.995  16.938  0.00  0.00    -0.275 OA
ATOM     71  ND2 ASN A   3      19.019  -6.704  15.539  0.00  0.00    -0.329 N 
ATOM     72 HD21 ASN A   3      19.248  -5.736  15.236  0.00  0.00    +0.145 HD
ATOM     73 HD22 ASN A   3      19.542  -7.510  15.141  0.00  0.00    +0.145 HD
ENDBRANCH  68  69
ENDBRANCH  39  68
ENDBRANCH   1  39
TORSDOF 26
REMARK  Name = ../refined-set-2016/1ro7/1ro7_pocket.pdb
REMARK  257 active torsions:
REMARK  status: ('A' for Active; 'I' for Inactive)
REMARK    1  A    between atoms: _1  and  _3
REMARK    2  A    between atoms: _3  and  _4
REMARK    3  A    between atoms: _3  and  _6
REMARK    4  A    between atoms: _6  and  _7
REMARK    5  A    between atoms: _10  and  _12
REMARK    6  A    between atoms: _12  and  _13
REMARK    7  A    between atoms: _16  and  _18
REMARK    8  A    between atoms: _18  and  _19
REMARK    9  A    between atoms: _21  and  _23
REMARK   10  A    between atoms: _23  and  _24
REMARK   11  A    between atoms: _23  and  _26
REMARK   12  A    between atoms: _26  and  _27
REMARK   13  A    between atoms: _32  and  _34
REMARK   14  A    between atoms: _34  and  _35
REMARK   15  A    between atoms: _38  and  _39
REMARK   16  A    between atoms: _44  and  _46
REMARK   17  A    between atoms: _46  and  _47
REMARK   18  A    between atoms: _46  and  _49
REMARK   19  A    between atoms: _49  and  _50
REMARK   20  A    between atoms: _52  and  _54
REMARK   21  A    between atoms: _54  and  _55
REMARK   22  A    between atoms: _54  and  _57
REMARK   23  A    between atoms: _57  and  _58
REMARK   24  A    between atoms: _61  and  _63
REMARK   25  A    between atoms: _63  and  _64
REMARK   26  A    between atoms: _63  and  _66
REMARK   27  A    between atoms: _66  and  _67
REMARK   28  A    between atoms: _67  and  _68
REMARK   29  A    between atoms: _68  and  _69
REMARK   30  A    between atoms: _78  and  _80
REMARK   31  A    between atoms: _80  and  _81
REMARK   32  A    between atoms: _80  and  _83
REMARK   33  A    between atoms: _85  and  _87
REMARK   34  A    between atoms: _87  and  _88
REMARK   35  A    between atoms: _87  and  _90
REMARK   36  A    between atoms: _90  and  _91
REMARK   37  A    between atoms: _96  and  _98
REMARK   38  A    between atoms: _98  and  _99
REMARK   39  A    between atoms: _98  and  _101
REMARK   40  A    between atoms: _101  and  _102
REMARK   41  A    between atoms: _102  and  _103
REMARK   42  A    between atoms: _108  and  _110
REMARK   43  A    between atoms: _110  and  _111
REMARK   44  A    between atoms: _110  and  _113
REMARK   45  A    between atoms: _113  and  _114
REMARK   46  A    between atoms: _120  and  _122
REMARK   47  A    between atoms: _122  and  _123
REMARK   48  A    between atoms: _122  and  _125
REMARK   49  A    between atoms: _125  and  _126
REMARK   50  A    between atoms: _131  and  _132
REMARK   51  A    between atoms: _134  and  _136
REMARK   52  A    between atoms: _136  and  _137
REMARK   53  A    between atoms: _136  and  _139
REMARK   54  A    between atoms: _139  and  _140
REMARK   55  A    between atoms: _146  and  _148
REMARK   56  A    between atoms: _148  and  _149
REMARK   57  A    between atoms: _148  and  _151
REMARK   58  A    between atoms: _151  and  _152
REMARK   59  A    between atoms: _157  and  _158
REMARK   60  A    between atoms: _160  and  _162
REMARK   61  A    between atoms: _162  and  _163
REMARK   62  A    between atoms: _162  and  _165
REMARK   63  A    between atoms: _165  and  _166
REMARK   64  A    between atoms: _172  and  _173
REMARK   65  A    between atoms: _178  and  _180
REMARK   66  A    between atoms: _180  and  _181
REMARK   67  A    between atoms: _180  and  _183
REMARK   68  A    between atoms: _183  and  _184
REMARK   69  A    between atoms: _186  and  _188
REMARK   70  A    between atoms: _188  and  _189
REMARK   71  A    between atoms: _188  and  _191
REMARK   72  A    between atoms: _191  and  _192
REMARK   73  A    between atoms: _195  and  _197
REMARK   74  A    between atoms: _197  and  _198
REMARK   75  A    between atoms: _197  and  _200
REMARK   76  A    between atoms: _200  and  _201
REMARK   77  A    between atoms: _207  and  _209
REMARK   78  A    between atoms: _209  and  _210
REMARK   79  A    between atoms: _209  and  _212
REMARK   80  A    between atoms: _212  and  _213
REMARK   81  A    between atoms: _213  and  _214
REMARK   82  A    between atoms: _219  and  _221
REMARK   83  A    between atoms: _221  and  _222
REMARK   84  A    between atoms: _221  and  _224
REMARK   85  A    between atoms: _224  and  _225
REMARK   86  A    between atoms: _227  and  _229
REMARK   87  A    between atoms: _229  and  _230
REMARK   88  A    between atoms: _229  and  _232
REMARK   89  A    between atoms: _232  and  _233
REMARK   90  A    between atoms: _238  and  _239
REMARK   91  A    between atoms: _241  and  _243
REMARK   92  A    between atoms: _243  and  _244
REMARK   93  A    between atoms: _243  and  _246
REMARK   94  A    between atoms: _246  and  _247
REMARK   95  A    between atoms: _247  and  _248
REMARK   96  A    between atoms: _248  and  _249
REMARK   97  A    between atoms: _258  and  _260
REMARK   98  A    between atoms: _260  and  _261
REMARK   99  A    between atoms: _260  and  _263
REMARK  100  A    between atoms: _263  and  _264
REMARK  101  A    between atoms: _267  and  _269
REMARK  102  A    between atoms: _269  and  _270
REMARK  103  A    between atoms: _269  and  _272
REMARK  104  A    between atoms: _272  and  _273
REMARK  105  A    between atoms: _276  and  _278
REMARK  106  A    between atoms: _278  and  _279
REMARK  107  A    between atoms: _278  and  _281
REMARK  108  A    between atoms: _281  and  _282
REMARK  109  A    between atoms: _284  and  _286
REMARK  110  A    between atoms: _286  and  _287
REMARK  111  A    between atoms: _289  and  _291
REMARK  112  A    between atoms: _291  and  _292
REMARK  113  A    between atoms: _291  and  _294
REMARK  114  A    between atoms: _297  and  _299
REMARK  115  A    between atoms: _299  and  _300
REMARK  116  A    between atoms: _299  and  _302
REMARK  117  A    between atoms: _302  and  _303
REMARK  118  A    between atoms: _308  and  _309
REMARK  119  A    between atoms: _311  and  _313
REMARK  120  A    between atoms: _313  and  _314
REMARK  121  A    between atoms: _313  and  _316
REMARK  122  A    between atoms: _316  and  _317
REMARK  123  A    between atoms: _317  and  _318
REMARK  124  A    between atoms: _320  and  _322
REMARK  125  A    between atoms: _322  and  _323
REMARK  126  A    between atoms: _322  and  _325
REMARK  127  A    between atoms: _325  and  _326
REMARK  128  A    between atoms: _328  and  _330
REMARK  129  A    between atoms: _330  and  _331
REMARK  130  A    between atoms: _333  and  _335
REMARK  131  A    between atoms: _335  and  _336
REMARK  132  A    between atoms: _335  and  _338
REMARK  133  A    between atoms: _338  and  _339
REMARK  134  A    between atoms: _342  and  _344
REMARK  135  A    between atoms: _344  and  _345
REMARK  136  A    between atoms: _344  and  _347
REMARK  137  A    between atoms: _347  and  _348
REMARK  138  A    between atoms: _351  and  _353
REMARK  139  A    between atoms: _353  and  _354
REMARK  140  A    between atoms: _353  and  _356
REMARK  141  A    between atoms: _356  and  _357
REMARK  142  A    between atoms: _363  and  _365
REMARK  143  A    between atoms: _365  and  _366
REMARK  144  A    between atoms: _365  and  _368
REMARK  145  A    between atoms: _368  and  _369
REMARK  146  A    between atoms: _374  and  _375
REMARK  147  A    between atoms: _377  and  _379
REMARK  148  A    between atoms: _379  and  _380
REMARK  149  A    between atoms: _379  and  _382
REMARK  150  A    between atoms: _382  and  _383
REMARK  151  A    between atoms: _383  and  _384
REMARK  152  A    between atoms: _389  and  _391
REMARK  153  A    between atoms: _391  and  _392
REMARK  154  A    between atoms: _391  and  _394
REMARK  155  A    between atoms: _394  and  _395
REMARK  156  A    between atoms: _400  and  _402
REMARK  157  A    between atoms: _402  and  _403
REMARK  158  A    between atoms: _405  and  _407
REMARK  159  A    between atoms: _407  and  _408
REMARK  160  A    between atoms: _407  and  _410
REMARK  161  A    between atoms: _410  and  _411
REMARK  162  A    between atoms: _413  and  _415
REMARK  163  A    between atoms: _415  and  _416
REMARK  164  A    between atoms: _415  and  _418
REMARK  165  A    between atoms: _418  and  _419
REMARK  166  A    between atoms: _421  and  _423
REMARK  167  A    between atoms: _423  and  _424
REMARK  168  A    between atoms: _423  and  _426
REMARK  169  A    between atoms: _426  and  _427
REMARK  170  A    between atoms: _432  and  _433
REMARK  171  A    between atoms: _435  and  _437
REMARK  172  A    between atoms: _437  and  _438
REMARK  173  A    between atoms: _441  and  _443
REMARK  174  A    between atoms: _443  and  _444
REMARK  175  A    between atoms: _443  and  _446
REMARK  176  A    between atoms: _446  and  _447
REMARK  177  A    between atoms: _453  and  _455
REMARK  178  A    between atoms: _455  and  _456
REMARK  179  A    between atoms: _455  and  _458
REMARK  180  A    between atoms: _458  and  _459
REMARK  181  A    between atoms: _462  and  _464
REMARK  182  A    between atoms: _464  and  _465
REMARK  183  A    between atoms: _464  and  _467
REMARK  184  A    between atoms: _467  and  _468
REMARK  185  A    between atoms: _471  and  _473
REMARK  186  A    between atoms: _473  and  _474
REMARK  187  A    between atoms: _473  and  _476
REMARK  188  A    between atoms: _476  and  _477
REMARK  189  A    between atoms: _480  and  _482
REMARK  190  A    between atoms: _482  and  _483
REMARK  191  A    between atoms: _487  and  _488
REMARK  192  A    between atoms: _493  and  _495
REMARK  193  A    between atoms: _495  and  _496
REMARK  194  A    between atoms: _495  and  _498
REMARK  195  A    between atoms: _498  and  _499
REMARK  196  A    between atoms: _504  and  _506
REMARK  197  A    between atoms: _506  and  _507
REMARK  198  A    between atoms: _506  and  _509
REMARK  199  A    between atoms: _509  and  _510
REMARK  200  A    between atoms: _516  and  _518
REMARK  201  A    between atoms: _518  and  _519
REMARK  202  A    between atoms: _518  and  _521
REMARK  203  A    between atoms: _521  and  _522
REMARK  204  A    between atoms: _522  and  _523
REMARK  205  A    between atoms: _523  and  _524
REMARK  206  A    between atoms: _524  and  _525
REMARK  207  A    between atoms: _529  and  _531
REMARK  208  A    between atoms: _531  and  _532
REMARK  209  A    between atoms: _531  and  _534
REMARK  210  A    between atoms: _534  and  _535
REMARK  211  A    between atoms: _540  and  _542
REMARK  212  A    between atoms: _542  and  _543
REMARK  213  A    between atoms: _542  and  _545
REMARK  214  A    between atoms: _545  and  _546
REMARK  215  A    between atoms: _551  and  _553
REMARK  216  A    between atoms: _553  and  _554
REMARK  217  A    between atoms: _553  and  _556
REMARK  218  A    between atoms: _556  and  _557
REMARK  219  A    between atoms: _559  and  _561
REMARK  220  A    between atoms: _561  and  _562
REMARK  221  A    between atoms: _561  and  _564
REMARK  222  A    between atoms: _564  and  _565
REMARK  223  A    between atoms: _570  and  _572
REMARK  224  A    between atoms: _572  and  _573
REMARK  225  A    between atoms: _572  and  _575
REMARK  226  A    between atoms: _575  and  _576
REMARK  227  A    between atoms: _581  and  _582
REMARK  228  A    between atoms: _584  and  _586
REMARK  229  A    between atoms: _586  and  _587
REMARK  230  A    between atoms: _586  and  _589
REMARK  231  A    between atoms: _589  and  _590
REMARK  232  A    between atoms: _593  and  _595
REMARK  233  A    between atoms: _595  and  _596
REMARK  234  A    between atoms: _598  and  _600
REMARK  235  A    between atoms: _600  and  _601
REMARK  236  A    between atoms: _600  and  _603
REMARK  237  A    between atoms: _603  and  _604
REMARK  238  A    between atoms: _609  and  _611
REMARK  239  A    between atoms: _611  and  _612
REMARK  240  A    between atoms: _611  and  _614
REMARK  241  A    between atoms: _614  and  _615
REMARK  242  A    between atoms: _617  and  _619
REMARK  243  A    between atoms: _619  and  _620
REMARK  244  A    between atoms: _619  and  _622
REMARK  245  A    between atoms: _622  and  _623
REMARK  246  A    between atoms: _626  and  _628
REMARK  247  A    between atoms: _628  and  _629
REMARK  248  A    between atoms: _628  and  _631
REMARK  249  A    between atoms: _631  and  _632
REMARK  250  A    between atoms: _634  and  _636
REMARK  251  A    between atoms: _636  and  _637
REMARK  252  A    between atoms: _636  and  _639
REMARK  253  A    between atoms: _639  and  _640
REMARK  254  A    between atoms: _643  and  _645
REMARK  255  A    between atoms: _645  and  _646
REMARK  256  A    between atoms: _645  and  _648
REMARK  257  A    between atoms: _648  and  _649
REMARK                            x       y       z     vdW  Elec       q    Type
REMARK                         _______ _______ _______ _____ _____    ______ ____
ROOT
ATOM      1  CB  GLN A   1      22.102 -11.306  22.741  0.00  0.00    +0.035 C 
ENDROOT
BRANCH   1   2
ATOM      2  CA  GLN A   1      22.848 -12.487  23.374  0.00  0.00    +0.134 C 
BRANCH   2   3
ATOM      3  N   GLN A   1      22.502 -13.739  22.701  0.00  0.00    -0.239 NA
ATOM      4  H   GLN A   1      21.720 -13.754  22.015  0.00  0.00    +0.142 HD
ENDBRANCH   2   3
BRANCH   2   5
ATOM      5  C   GLN A   1      22.519 -12.562  24.866  0.00  0.00    +0.224 C 
ATOM      6  O   GLN A   1      23.236 -12.005  25.694  0.00  0.00    -0.287 OA
ENDBRANCH   2   5
ENDBRANCH   1   2
BRANCH   1   7
ATOM      7  CG  GLN A   1      22.531 -10.993  21.312  0.00  0.00    +0.087 C 
BRANCH   7   8
ATOM      8  CD  GLN A   1      23.852 -10.232  21.230  0.00  0.00    +0.219 C 
ATOM      9  OE1 GLN A   1      24.731 -10.369  22.088  0.00  0.00    -0.275 OA
ATOM     10  NE2 GLN A   1      23.998  -9.432  20.177  0.00  0.00    -0.329 N 
ATOM     11 HE21 GLN A   1      24.878  -8.892  20.052  0.00  0.00    +0.145 HD
ATOM     12 HE22 GLN A   1      23.232  -9.347  19.479  0.00  0.00    +0.145 HD
ENDBRANCH   7   8
ENDBRANCH   1   7
TORSDOF 5
REMARK  Name = ../refined-set-2016/1ro7/1ro7_pocket.pdb
REMARK  257 active torsions:
REMARK  status: ('A' for Active; 'I' for Inactive)
REMARK    1  A    between atoms: _1  and  _3
REMARK    2  A    between atoms: _3  and  _4
REMARK    3  A    between atoms: _3  and  _6
REMARK    4  A    between atoms: _6  and  _7
REMARK    5  A    between atoms: _10  and  _12
REMARK    6  A    between atoms: _12  and  _13
REMARK    7  A    between atoms: _16  and  _18
REMARK    8  A    between atoms: _18  and  _19
REMARK    9  A    between atoms: _21  and  _23
REMARK   10  A    between atoms: _23  and  _24
REMARK   11  A    between atoms: _23  and  _26
REMARK   12  A    between atoms: _26  and  _27
REMARK   13  A    between atoms: _32  and  _34
REMARK   14  A    between atoms: _34  and  _35
REMARK   15  A    between atoms: _38  and  _39
REMARK   16  A    between atoms: _44  and  _46
REMARK   17  A    between atoms: _46  and  _47
REMARK   18  A    between atoms: _46  and  _49
REMARK   19  A    between atoms: _49  and  _50
REMARK   20  A    between atoms: _52  and  _54
REMARK   21  A    between atoms: _54  and  _55
REMARK   22  A    between atoms: _54  and  _57
REMARK   23  A    between atoms: _57  and  _58
REMARK   24  A    between atoms: _61  and  _63
REMARK   25  A    between atoms: _63  and  _64
REMARK   26  A    between atoms: _63  and  _66
REMARK   27  A    between atoms: _66  and  _67
REMARK   28  A    between atoms: _67  and  _68
REMARK   29  A    between atoms: _68  and  _69
REMARK   30  A    between atoms: _78  and  _80
REMARK   31  A    between atoms: _80  and  _81
REMARK   32  A    between atoms: _80  and  _83
REMARK   33  A    between atoms: _85  and  _87
REMARK   34  A    between atoms: _87  and  _88
REMARK   35  A    between atoms: _87  and  _90
REMARK   36  A    between atoms: _90  and  _91
REMARK   37  A    between atoms: _96  and  _98
REMARK   38  A    between atoms: _98  and  _99
REMARK   39  A    between atoms: _98  and  _101
REMARK   40  A    between atoms: _101  and  _102
REMARK   41  A    between atoms: _102  and  _103
REMARK   42  A    between atoms: _108  and  _110
REMARK   43  A    between atoms: _110  and  _111
REMARK   44  A    between atoms: _110  and  _113
REMARK   45  A    between atoms: _113  and  _114
REMARK   46  A    between atoms: _120  and  _122
REMARK   47  A    between atoms: _122  and  _123
REMARK   48  A    between atoms: _122  and  _125
REMARK   49  A    between atoms: _125  and  _126
REMARK   50  A    between atoms: _131  and  _132
REMARK   51  A    between atoms: _134  and  _136
REMARK   52  A    between atoms: _136  and  _137
REMARK   53  A    between atoms: _136  and  _139
REMARK   54  A    between atoms: _139  and  _140
REMARK   55  A    between atoms: _146  and  _148
REMARK   56  A    between atoms: _148  and  _149
REMARK   57  A    between atoms: _148  and  _151
REMARK   58  A    between atoms: _151  and  _152
REMARK   59  A    between atoms: _157  and  _158
REMARK   60  A    between atoms: _160  and  _162
REMARK   61  A    between atoms: _162  and  _163
REMARK   62  A    between atoms: _162  and  _165
REMARK   63  A    between atoms: _165  and  _166
REMARK   64  A    between atoms: _172  and  _173
REMARK   65  A    between atoms: _178  and  _180
REMARK   66  A    between atoms: _180  and  _181
REMARK   67  A    between atoms: _180  and  _183
REMARK   68  A    between atoms: _183  and  _184
REMARK   69  A    between atoms: _186  and  _188
REMARK   70  A    between atoms: _188  and  _189
REMARK   71  A    between atoms: _188  and  _191
REMARK   72  A    between atoms: _191  and  _192
REMARK   73  A    between atoms: _195  and  _197
REMARK   74  A    between atoms: _197  and  _198
REMARK   75  A    between atoms: _197  and  _200
REMARK   76  A    between atoms: _200  and  _201
REMARK   77  A    between atoms: _207  and  _209
REMARK   78  A    between atoms: _209  and  _210
REMARK   79  A    between atoms: _209  and  _212
REMARK   80  A    between atoms: _212  and  _213
REMARK   81  A    between atoms: _213  and  _214
REMARK   82  A    between atoms: _219  and  _221
REMARK   83  A    between atoms: _221  and  _222
REMARK   84  A    between atoms: _221  and  _224
REMARK   85  A    between atoms: _224  and  _225
REMARK   86  A    between atoms: _227  and  _229
REMARK   87  A    between atoms: _229  and  _230
REMARK   88  A    between atoms: _229  and  _232
REMARK   89  A    between atoms: _232  and  _233
REMARK   90  A    between atoms: _238  and  _239
REMARK   91  A    between atoms: _241  and  _243
REMARK   92  A    between atoms: _243  and  _244
REMARK   93  A    between atoms: _243  and  _246
REMARK   94  A    between atoms: _246  and  _247
REMARK   95  A    between atoms: _247  and  _248
REMARK   96  A    between atoms: _248  and  _249
REMARK   97  A    between atoms: _258  and  _260
REMARK   98  A    between atoms: _260  and  _261
REMARK   99  A    between atoms: _260  and  _263
REMARK  100  A    between atoms: _263  and  _264
REMARK  101  A    between atoms: _267  and  _269
REMARK  102  A    between atoms: _269  and  _270
REMARK  103  A    between atoms: _269  and  _272
REMARK  104  A    between atoms: _272  and  _273
REMARK  105  A    between atoms: _276  and  _278
REMARK  106  A    between atoms: _278  and  _279
REMARK  107  A    between atoms: _278  and  _281
REMARK  108  A    between atoms: _281  and  _282
REMARK  109  A    between atoms: _284  and  _286
REMARK  110  A    between atoms: _286  and  _287
REMARK  111  A    between atoms: _289  and  _291
REMARK  112  A    between atoms: _291  and  _292
REMARK  113  A    between atoms: _291  and  _294
REMARK  114  A    between atoms: _297  and  _299
REMARK  115  A    between atoms: _299  and  _300
REMARK  116  A    between atoms: _299  and  _302
REMARK  117  A    between atoms: _302  and  _303
REMARK  118  A    between atoms: _308  and  _309
REMARK  119  A    between atoms: _311  and  _313
REMARK  120  A    between atoms: _313  and  _314
REMARK  121  A    between atoms: _313  and  _316
REMARK  122  A    between atoms: _316  and  _317
REMARK  123  A    between atoms: _317  and  _318
REMARK  124  A    between atoms: _320  and  _322
REMARK  125  A    between atoms: _322  and  _323
REMARK  126  A    between atoms: _322  and  _325
REMARK  127  A    between atoms: _325  and  _326
REMARK  128  A    between atoms: _328  and  _330
REMARK  129  A    between atoms: _330  and  _331
REMARK  130  A    between atoms: _333  and  _335
REMARK  131  A    between atoms: _335  and  _336
REMARK  132  A    between atoms: _335  and  _338
REMARK  133  A    between atoms: _338  and  _339
REMARK  134  A    between atoms: _342  and  _344
REMARK  135  A    between atoms: _344  and  _345
REMARK  136  A    between atoms: _344  and  _347
REMARK  137  A    between atoms: _347  and  _348
REMARK  138  A    between atoms: _351  and  _353
REMARK  139  A    between atoms: _353  and  _354
REMARK  140  A    between atoms: _353  and  _356
REMARK  141  A    between atoms: _356  and  _357
REMARK  142  A    between atoms: _363  and  _365
REMARK  143  A    between atoms: _365  and  _366
REMARK  144  A    between atoms: _365  and  _368
REMARK  145  A    between atoms: _368  and  _369
REMARK  146  A    between atoms: _374  and  _375
REMARK  147  A    between atoms: _377  and  _379
REMARK  148  A    between atoms: _379  and  _380
REMARK  149  A    between atoms: _379  and  _382
REMARK  150  A    between atoms: _382  and  _383
REMARK  151  A    between atoms: _383  and  _384
REMARK  152  A    between atoms: _389  and  _391
REMARK  153  A    between atoms: _391  and  _392
REMARK  154  A    between atoms: _391  and  _394
REMARK  155  A    between atoms: _394  and  _395
REMARK  156  A    between atoms: _400  and  _402
REMARK  157  A    between atoms: _402  and  _403
REMARK  158  A    between atoms: _405  and  _407
REMARK  159  A    between atoms: _407  and  _408
REMARK  160  A    between atoms: _407  and  _410
REMARK  161  A    between atoms: _410  and  _411
REMARK  162  A    between atoms: _413  and  _415
REMARK  163  A    between atoms: _415  and  _416
REMARK  164  A    between atoms: _415  and  _418
REMARK  165  A    between atoms: _418  and  _419
REMARK  166  A    between atoms: _421  and  _423
REMARK  167  A    between atoms: _423  and  _424
REMARK  168  A    between atoms: _423  and  _426
REMARK  169  A    between atoms: _426  and  _427
REMARK  170  A    between atoms: _432  and  _433
REMARK  171  A    between atoms: _435  and  _437
REMARK  172  A    between atoms: _437  and  _438
REMARK  173  A    between atoms: _441  and  _443
REMARK  174  A    between atoms: _443  and  _444
REMARK  175  A    between atoms: _443  and  _446
REMARK  176  A    between atoms: _446  and  _447
REMARK  177  A    between atoms: _453  and  _455
REMARK  178  A    between atoms: _455  and  _456
REMARK  179  A    between atoms: _455  and  _458
REMARK  180  A    between atoms: _458  and  _459
REMARK  181  A    between atoms: _462  and  _464
REMARK  182  A    between atoms: _464  and  _465
REMARK  183  A    between atoms: _464  and  _467
REMARK  184  A    between atoms: _467  and  _468
REMARK  185  A    between atoms: _471  and  _473
REMARK  186  A    between atoms: _473  and  _474
REMARK  187  A    between atoms: _473  and  _476
REMARK  188  A    between atoms: _476  and  _477
REMARK  189  A    between atoms: _480  and  _482
REMARK  190  A    between atoms: _482  and  _483
REMARK  191  A    between atoms: _487  and  _488
REMARK  192  A    between atoms: _493  and  _495
REMARK  193  A    between atoms: _495  and  _496
REMARK  194  A    between atoms: _495  and  _498
REMARK  195  A    between atoms: _498  and  _499
REMARK  196  A    between atoms: _504  and  _506
REMARK  197  A    between atoms: _506  and  _507
REMARK  198  A    between atoms: _506  and  _509
REMARK  199  A    between atoms: _509  and  _510
REMARK  200  A    between atoms: _516  and  _518
REMARK  201  A    between atoms: _518  and  _519
REMARK  202  A    between atoms: _518  and  _521
REMARK  203  A    between atoms: _521  and  _522
REMARK  204  A    between atoms: _522  and  _523
REMARK  205  A    between atoms: _523  and  _524
REMARK  206  A    between atoms: _524  and  _525
REMARK  207  A    between atoms: _529  and  _531
REMARK  208  A    between atoms: _531  and  _532
REMARK  209  A    between atoms: _531  and  _534
REMARK  210  A    between atoms: _534  and  _535
REMARK  211  A    between atoms: _540  and  _542
REMARK  212  A    between atoms: _542  and  _543
REMARK  213  A    between atoms: _542  and  _545
REMARK  214  A    between atoms: _545  and  _546
REMARK  215  A    between atoms: _551  and  _553
REMARK  216  A    between atoms: _553  and  _554
REMARK  217  A    between atoms: _553  and  _556
REMARK  218  A    between atoms: _556  and  _557
REMARK  219  A    between atoms: _559  and  _561
REMARK  220  A    between atoms: _561  and  _562
REMARK  221  A    between atoms: _561  and  _564
REMARK  222  A    between atoms: _564  and  _565
REMARK  223  A    between atoms: _570  and  _572
REMARK  224  A    between atoms: _572  and  _573
REMARK  225  A    between atoms: _572  and  _575
REMARK  226  A    between atoms: _575  and  _576
REMARK  227  A    between atoms: _581  and  _582
REMARK  228  A    between atoms: _584  and  _586
REMARK  229  A    between atoms: _586  and  _587
REMARK  230  A    between atoms: _586  and  _589
REMARK  231  A    between atoms: _589  and  _590
REMARK  232  A    between atoms: _593  and  _595
REMARK  233  A    between atoms: _595  and  _596
REMARK  234  A    between atoms: _598  and  _600
REMARK  235  A    between atoms: _600  and  _601
REMARK  236  A    between atoms: _600  and  _603
REMARK  237  A    between atoms: _603  and  _604
REMARK  238  A    between atoms: _609  and  _611
REMARK  239  A    between atoms: _611  and  _612
REMARK  240  A    between atoms: _611  and  _614
REMARK  241  A    between atoms: _614  and  _615
REMARK  242  A    between atoms: _617  and  _619
REMARK  243  A    between atoms: _619  and  _620
REMARK  244  A    between atoms: _619  and  _622
REMARK  245  A    between atoms: _622  and  _623
REMARK  246  A    between atoms: _626  and  _628
REMARK  247  A    between atoms: _628  and  _629
REMARK  248  A    between atoms: _628  and  _631
REMARK  249  A    between atoms: _631  and  _632
REMARK  250  A    between atoms: _634  and  _636
REMARK  251  A    between atoms: _636  and  _637
REMARK  252  A    between atoms: _636  and  _639
REMARK  253  A    between atoms: _639  and  _640
REMARK  254  A    between atoms: _643  and  _645
REMARK  255  A    between atoms: _645  and  _646
REMARK  256  A    between atoms: _645  and  _648
REMARK  257  A    between atoms: _648  and  _649
REMARK                            x       y       z     vdW  Elec       q    Type
REMARK                         _______ _______ _______ _____ _____    ______ ____
ROOT
ATOM      1  CA  SER A   1      13.503  -5.593  20.069  0.00  0.00    +0.163 C 
ENDROOT
BRANCH   1   2
ATOM      2  N   SER A   1      14.074  -6.546  21.016  0.00  0.00    -0.237 NA
ATOM      3  H   SER A   1      15.054  -6.867  20.885  0.00  0.00    +0.142 HD
ENDBRANCH   1   2
BRANCH   1   4
ATOM      4  C   SER A   1      12.553  -6.231  19.061  0.00  0.00    +0.227 C 
ATOM      5  O   SER A   1      12.894  -6.374  17.883  0.00  0.00    -0.287 OA
ENDBRANCH   1   4
BRANCH   1   6
ATOM      6  CB  SER A   1      14.643  -4.875  19.346  0.00  0.00    +0.162 C 
BRANCH   6   7
ATOM      7  OG  SER A   1      15.560  -4.344  20.290  0.00  0.00    -0.380 OA
ATOM      8  H   SER A   1      16.293  -3.882  19.812  0.00  0.00    +0.211 HD
ENDBRANCH   6   7
ENDBRANCH   1   6
TORSDOF 4
REMARK  Name = ../refined-set-2016/1ro7/1ro7_pocket.pdb
REMARK  257 active torsions:
REMARK  status: ('A' for Active; 'I' for Inactive)
REMARK    1  A    between atoms: _1  and  _3
REMARK    2  A    between atoms: _3  and  _4
REMARK    3  A    between atoms: _3  and  _6
REMARK    4  A    between atoms: _6  and  _7
REMARK    5  A    between atoms: _10  and  _12
REMARK    6  A    between atoms: _12  and  _13
REMARK    7  A    between atoms: _16  and  _18
REMARK    8  A    between atoms: _18  and  _19
REMARK    9  A    between atoms: _21  and  _23
REMARK   10  A    between atoms: _23  and  _24
REMARK   11  A    between atoms: _23  and  _26
REMARK   12  A    between atoms: _26  and  _27
REMARK   13  A    between atoms: _32  and  _34
REMARK   14  A    between atoms: _34  and  _35
REMARK   15  A    between atoms: _38  and  _39
REMARK   16  A    between atoms: _44  and  _46
REMARK   17  A    between atoms: _46  and  _47
REMARK   18  A    between atoms: _46  and  _49
REMARK   19  A    between atoms: _49  and  _50
REMARK   20  A    between atoms: _52  and  _54
REMARK   21  A    between atoms: _54  and  _55
REMARK   22  A    between atoms: _54  and  _57
REMARK   23  A    between atoms: _57  and  _58
REMARK   24  A    between atoms: _61  and  _63
REMARK   25  A    between atoms: _63  and  _64
REMARK   26  A    between atoms: _63  and  _66
REMARK   27  A    between atoms: _66  and  _67
REMARK   28  A    between atoms: _67  and  _68
REMARK   29  A    between atoms: _68  and  _69
REMARK   30  A    between atoms: _78  and  _80
REMARK   31  A    between atoms: _80  and  _81
REMARK   32  A    between atoms: _80  and  _83
REMARK   33  A    between atoms: _85  and  _87
REMARK   34  A    between atoms: _87  and  _88
REMARK   35  A    between atoms: _87  and  _90
REMARK   36  A    between atoms: _90  and  _91
REMARK   37  A    between atoms: _96  and  _98
REMARK   38  A    between atoms: _98  and  _99
REMARK   39  A    between atoms: _98  and  _101
REMARK   40  A    between atoms: _101  and  _102
REMARK   41  A    between atoms: _102  and  _103
REMARK   42  A    between atoms: _108  and  _110
REMARK   43  A    between atoms: _110  and  _111
REMARK   44  A    between atoms: _110  and  _113
REMARK   45  A    between atoms: _113  and  _114
REMARK   46  A    between atoms: _120  and  _122
REMARK   47  A    between atoms: _122  and  _123
REMARK   48  A    between atoms: _122  and  _125
REMARK   49  A    between atoms: _125  and  _126
REMARK   50  A    between atoms: _131  and  _132
REMARK   51  A    between atoms: _134  and  _136
REMARK   52  A    between atoms: _136  and  _137
REMARK   53  A    between atoms: _136  and  _139
REMARK   54  A    between atoms: _139  and  _140
REMARK   55  A    between atoms: _146  and  _148
REMARK   56  A    between atoms: _148  and  _149
REMARK   57  A    between atoms: _148  and  _151
REMARK   58  A    between atoms: _151  and  _152
REMARK   59  A    between atoms: _157  and  _158
REMARK   60  A    between atoms: _160  and  _162
REMARK   61  A    between atoms: _162  and  _163
REMARK   62  A    between atoms: _162  and  _165
REMARK   63  A    between atoms: _165  and  _166
REMARK   64  A    between atoms: _172  and  _173
REMARK   65  A    between atoms: _178  and  _180
REMARK   66  A    between atoms: _180  and  _181
REMARK   67  A    between atoms: _180  and  _183
REMARK   68  A    between atoms: _183  and  _184
REMARK   69  A    between atoms: _186  and  _188
REMARK   70  A    between atoms: _188  and  _189
REMARK   71  A    between atoms: _188  and  _191
REMARK   72  A    between atoms: _191  and  _192
REMARK   73  A    between atoms: _195  and  _197
REMARK   74  A    between atoms: _197  and  _198
REMARK   75  A    between atoms: _197  and  _200
REMARK   76  A    between atoms: _200  and  _201
REMARK   77  A    between atoms: _207  and  _209
REMARK   78  A    between atoms: _209  and  _210
REMARK   79  A    between atoms: _209  and  _212
REMARK   80  A    between atoms: _212  and  _213
REMARK   81  A    between atoms: _213  and  _214
REMARK   82  A    between atoms: _219  and  _221
REMARK   83  A    between atoms: _221  and  _222
REMARK   84  A    between atoms: _221  and  _224
REMARK   85  A    between atoms: _224  and  _225
REMARK   86  A    between atoms: _227  and  _229
REMARK   87  A    between atoms: _229  and  _230
REMARK   88  A    between atoms: _229  and  _232
REMARK   89  A    between atoms: _232  and  _233
REMARK   90  A    between atoms: _238  and  _239
REMARK   91  A    between atoms: _241  and  _243
REMARK   92  A    between atoms: _243  and  _244
REMARK   93  A    between atoms: _243  and  _246
REMARK   94  A    between atoms: _246  and  _247
REMARK   95  A    between atoms: _247  and  _248
REMARK   96  A    between atoms: _248  and  _249
REMARK   97  A    between atoms: _258  and  _260
REMARK   98  A    between atoms: _260  and  _261
REMARK   99  A    between atoms: _260  and  _263
REMARK  100  A    between atoms: _263  and  _264
REMARK  101  A    between atoms: _267  and  _269
REMARK  102  A    between atoms: _269  and  _270
REMARK  103  A    between atoms: _269  and  _272
REMARK  104  A    between atoms: _272  and  _273
REMARK  105  A    between atoms: _276  and  _278
REMARK  106  A    between atoms: _278  and  _279
REMARK  107  A    between atoms: _278  and  _281
REMARK  108  A    between atoms: _281  and  _282
REMARK  109  A    between atoms: _284  and  _286
REMARK  110  A    between atoms: _286  and  _287
REMARK  111  A    between atoms: _289  and  _291
REMARK  112  A    between atoms: _291  and  _292
REMARK  113  A    between atoms: _291  and  _294
REMARK  114  A    between atoms: _297  and  _299
REMARK  115  A    between atoms: _299  and  _300
REMARK  116  A    between atoms: _299  and  _302
REMARK  117  A    between atoms: _302  and  _303
REMARK  118  A    between atoms: _308  and  _309
REMARK  119  A    between atoms: _311  and  _313
REMARK  120  A    between atoms: _313  and  _314
REMARK  121  A    between atoms: _313  and  _316
REMARK  122  A    between atoms: _316  and  _317
REMARK  123  A    between atoms: _317  and  _318
REMARK  124  A    between atoms: _320  and  _322
REMARK  125  A    between atoms: _322  and  _323
REMARK  126  A    between atoms: _322  and  _325
REMARK  127  A    between atoms: _325  and  _326
REMARK  128  A    between atoms: _328  and  _330
REMARK  129  A    between atoms: _330  and  _331
REMARK  130  A    between atoms: _333  and  _335
REMARK  131  A    between atoms: _335  and  _336
REMARK  132  A    between atoms: _335  and  _338
REMARK  133  A    between atoms: _338  and  _339
REMARK  134  A    between atoms: _342  and  _344
REMARK  135  A    between atoms: _344  and  _345
REMARK  136  A    between atoms: _344  and  _347
REMARK  137  A    between atoms: _347  and  _348
REMARK  138  A    between atoms: _351  and  _353
REMARK  139  A    between atoms: _353  and  _354
REMARK  140  A    between atoms: _353  and  _356
REMARK  141  A    between atoms: _356  and  _357
REMARK  142  A    between atoms: _363  and  _365
REMARK  143  A    between atoms: _365  and  _366
REMARK  144  A    between atoms: _365  and  _368
REMARK  145  A    between atoms: _368  and  _369
REMARK  146  A    between atoms: _374  and  _375
REMARK  147  A    between atoms: _377  and  _379
REMARK  148  A    between atoms: _379  and  _380
REMARK  149  A    between atoms: _379  and  _382
REMARK  150  A    between atoms: _382  and  _383
REMARK  151  A    between atoms: _383  and  _384
REMARK  152  A    between atoms: _389  and  _391
REMARK  153  A    between atoms: _391  and  _392
REMARK  154  A    between atoms: _391  and  _394
REMARK  155  A    between atoms: _394  and  _395
REMARK  156  A    between atoms: _400  and  _402
REMARK  157  A    between atoms: _402  and  _403
REMARK  158  A    between atoms: _405  and  _407
REMARK  159  A    between atoms: _407  and  _408
REMARK  160  A    between atoms: _407  and  _410
REMARK  161  A    between atoms: _410  and  _411
REMARK  162  A    between atoms: _413  and  _415
REMARK  163  A    between atoms: _415  and  _416
REMARK  164  A    between atoms: _415  and  _418
REMARK  165  A    between atoms: _418  and  _419
REMARK  166  A    between atoms: _421  and  _423
REMARK  167  A    between atoms: _423  and  _424
REMARK  168  A    between atoms: _423  and  _426
REMARK  169  A    between atoms: _426  and  _427
REMARK  170  A    between atoms: _432  and  _433
REMARK  171  A    between atoms: _435  and  _437
REMARK  172  A    between atoms: _437  and  _438
REMARK  173  A    between atoms: _441  and  _443
REMARK  174  A    between atoms: _443  and  _444
REMARK  175  A    between atoms: _443  and  _446
REMARK  176  A    between atoms: _446  and  _447
REMARK  177  A    between atoms: _453  and  _455
REMARK  178  A    between atoms: _455  and  _456
REMARK  179  A    between atoms: _455  and  _458
REMARK  180  A    between atoms: _458  and  _459
REMARK  181  A    between atoms: _462  and  _464
REMARK  182  A    between atoms: _464  and  _465
REMARK  183  A    between atoms: _464  and  _467
REMARK  184  A    between atoms: _467  and  _468
REMARK  185  A    between atoms: _471  and  _473
REMARK  186  A    between atoms: _473  and  _474
REMARK  187  A    between atoms: _473  and  _476
REMARK  188  A    between atoms: _476  and  _477
REMARK  189  A    between atoms: _480  and  _482
REMARK  190  A    between atoms: _482  and  _483
REMARK  191  A    between atoms: _487  and  _488
REMARK  192  A    between atoms: _493  and  _495
REMARK  193  A    between atoms: _495  and  _496
REMARK  194  A    between atoms: _495  and  _498
REMARK  195  A    between atoms: _498  and  _499
REMARK  196  A    between atoms: _504  and  _506
REMARK  197  A    between atoms: _506  and  _507
REMARK  198  A    between atoms: _506  and  _509
REMARK  199  A    between atoms: _509  and  _510
REMARK  200  A    between atoms: _516  and  _518
REMARK  201  A    between atoms: _518  and  _519
REMARK  202  A    between atoms: _518  and  _521
REMARK  203  A    between atoms: _521  and  _522
REMARK  204  A    between atoms: _522  and  _523
REMARK  205  A    between atoms: _523  and  _524
REMARK  206  A    between atoms: _524  and  _525
REMARK  207  A    between atoms: _529  and  _531
REMARK  208  A    between atoms: _531  and  _532
REMARK  209  A    between atoms: _531  and  _534
REMARK  210  A    between atoms: _534  and  _535
REMARK  211  A    between atoms: _540  and  _542
REMARK  212  A    between atoms: _542  and  _543
REMARK  213  A    between atoms: _542  and  _545
REMARK  214  A    between atoms: _545  and  _546
REMARK  215  A    between atoms: _551  and  _553
REMARK  216  A    between atoms: _553  and  _554
REMARK  217  A    between atoms: _553  and  _556
REMARK  218  A    between atoms: _556  and  _557
REMARK  219  A    between atoms: _559  and  _561
REMARK  220  A    between atoms: _561  and  _562
REMARK  221  A    between atoms: _561  and  _564
REMARK  222  A    between atoms: _564  and  _565
REMARK  223  A    between atoms: _570  and  _572
REMARK  224  A    between atoms: _572  and  _573
REMARK  225  A    between atoms: _572  and  _575
REMARK  226  A    between atoms: _575  and  _576
REMARK  227  A    between atoms: _581  and  _582
REMARK  228  A    between atoms: _584  and  _586
REMARK  229  A    between atoms: _586  and  _587
REMARK  230  A    between atoms: _586  and  _589
REMARK  231  A    between atoms: _589  and  _590
REMARK  232  A    between atoms: _593  and  _595
REMARK  233  A    between atoms: _595  and  _596
REMARK  234  A    between atoms: _598  and  _600
REMARK  235  A    between atoms: _600  and  _601
REMARK  236  A    between atoms: _600  and  _603
REMARK  237  A    between atoms: _603  and  _604
REMARK  238  A    between atoms: _609  and  _611
REMARK  239  A    between atoms: _611  and  _612
REMARK  240  A    between atoms: _611  and  _614
REMARK  241  A    between atoms: _614  and  _615
REMARK  242  A    between atoms: _617  and  _619
REMARK  243  A    between atoms: _619  and  _620
REMARK  244  A    between atoms: _619  and  _622
REMARK  245  A    between atoms: _622  and  _623
REMARK  246  A    between atoms: _626  and  _628
REMARK  247  A    between atoms: _628  and  _629
REMARK  248  A    between atoms: _628  and  _631
REMARK  249  A    between atoms: _631  and  _632
REMARK  250  A    between atoms: _634  and  _636
REMARK  251  A    between atoms: _636  and  _637
REMARK  252  A    between atoms: _636  and  _639
REMARK  253  A    between atoms: _639  and  _640
REMARK  254  A    between atoms: _643  and  _645
REMARK  255  A    between atoms: _645  and  _646
REMARK  256  A    between atoms: _645  and  _648
REMARK  257  A    between atoms: _648  and  _649
REMARK                            x       y       z     vdW  Elec       q    Type
REMARK                         _______ _______ _______ _____ _____    ______ ____
ROOT
ATOM      1  CG  TYR A   1       9.104  -4.571  15.179  0.00  0.00    -0.020 A 
ATOM      2  CD2 TYR A   1       8.955  -3.191  15.300  0.00  0.00    -0.001 A 
ATOM      3  CE2 TYR A   1      10.055  -2.333  15.215  0.00  0.00    +0.036 A 
ATOM      4  CZ  TYR A   1      11.319  -2.853  15.008  0.00  0.00    +0.134 A 
ATOM      5  CE1 TYR A   1      11.499  -4.228  14.889  0.00  0.00    +0.036 A 
ATOM      6  CD1 TYR A   1      10.391  -5.079  14.978  0.00  0.00    -0.001 A 
ENDROOT
BRANCH   4   7
ATOM      7  OH  TYR A   1      12.392  -1.990  14.907  0.00  0.00    -0.506 OA
ATOM      8  HH  TYR A   1      13.221  -2.511  14.761  0.00  0.00    +0.292 HD
ENDBRANCH   4   7
BRANCH   1   9
ATOM      9  CB  TYR A   1       7.894  -5.483  15.205  0.00  0.00    +0.051 C 
BRANCH   9  10
ATOM     10  CA  TYR A   1       7.445  -5.983  16.584  0.00  0.00    +0.137 C 
BRANCH  10  11
ATOM     11  N   TYR A   1       8.518  -6.771  17.181  0.00  0.00    -0.239 NA
ATOM     12  H   TYR A   1       8.708  -7.723  16.809  0.00  0.00    +0.142 HD
ENDBRANCH  10  11
BRANCH  10  13
ATOM     13  C   TYR A   1       6.120  -6.722  16.390  0.00  0.00    +0.224 C 
ATOM     14  O   TYR A   1       5.157  -6.135  15.892  0.00  0.00    -0.287 OA
ENDBRANCH  10  13
ENDBRANCH   9  10
ENDBRANCH   1   9
TORSDOF 5
REMARK  Name = ../refined-set-2016/1ro7/1ro7_pocket.pdb
REMARK  257 active torsions:
REMARK  status: ('A' for Active; 'I' for Inactive)
REMARK    1  A    between atoms: _1  and  _3
REMARK    2  A    between atoms: _3  and  _4
REMARK    3  A    between atoms: _3  and  _6
REMARK    4  A    between atoms: _6  and  _7
REMARK    5  A    between atoms: _10  and  _12
REMARK    6  A    between atoms: _12  and  _13
REMARK    7  A    between atoms: _16  and  _18
REMARK    8  A    between atoms: _18  and  _19
REMARK    9  A    between atoms: _21  and  _23
REMARK   10  A    between atoms: _23  and  _24
REMARK   11  A    between atoms: _23  and  _26
REMARK   12  A    between atoms: _26  and  _27
REMARK   13  A    between atoms: _32  and  _34
REMARK   14  A    between atoms: _34  and  _35
REMARK   15  A    between atoms: _38  and  _39
REMARK   16  A    between atoms: _44  and  _46
REMARK   17  A    between atoms: _46  and  _47
REMARK   18  A    between atoms: _46  and  _49
REMARK   19  A    between atoms: _49  and  _50
REMARK   20  A    between atoms: _52  and  _54
REMARK   21  A    between atoms: _54  and  _55
REMARK   22  A    between atoms: _54  and  _57
REMARK   23  A    between atoms: _57  and  _58
REMARK   24  A    between atoms: _61  and  _63
REMARK   25  A    between atoms: _63  and  _64
REMARK   26  A    between atoms: _63  and  _66
REMARK   27  A    between atoms: _66  and  _67
REMARK   28  A    between atoms: _67  and  _68
REMARK   29  A    between atoms: _68  and  _69
REMARK   30  A    between atoms: _78  and  _80
REMARK   31  A    between atoms: _80  and  _81
REMARK   32  A    between atoms: _80  and  _83
REMARK   33  A    between atoms: _85  and  _87
REMARK   34  A    between atoms: _87  and  _88
REMARK   35  A    between atoms: _87  and  _90
REMARK   36  A    between atoms: _90  and  _91
REMARK   37  A    between atoms: _96  and  _98
REMARK   38  A    between atoms: _98  and  _99
REMARK   39  A    between atoms: _98  and  _101
REMARK   40  A    between atoms: _101  and  _102
REMARK   41  A    between atoms: _102  and  _103
REMARK   42  A    between atoms: _108  and  _110
REMARK   43  A    between atoms: _110  and  _111
REMARK   44  A    between atoms: _110  and  _113
REMARK   45  A    between atoms: _113  and  _114
REMARK   46  A    between atoms: _120  and  _122
REMARK   47  A    between atoms: _122  and  _123
REMARK   48  A    between atoms: _122  and  _125
REMARK   49  A    between atoms: _125  and  _126
REMARK   50  A    between atoms: _131  and  _132
REMARK   51  A    between atoms: _134  and  _136
REMARK   52  A    between atoms: _136  and  _137
REMARK   53  A    between atoms: _136  and  _139
REMARK   54  A    between atoms: _139  and  _140
REMARK   55  A    between atoms: _146  and  _148
REMARK   56  A    between atoms: _148  and  _149
REMARK   57  A    between atoms: _148  and  _151
REMARK   58  A    between atoms: _151  and  _152
REMARK   59  A    between atoms: _157  and  _158
REMARK   60  A    between atoms: _160  and  _162
REMARK   61  A    between atoms: _162  and  _163
REMARK   62  A    between atoms: _162  and  _165
REMARK   63  A    between atoms: _165  and  _166
REMARK   64  A    between atoms: _172  and  _173
REMARK   65  A    between atoms: _178  and  _180
REMARK   66  A    between atoms: _180  and  _181
REMARK   67  A    between atoms: _180  and  _183
REMARK   68  A    between atoms: _183  and  _184
REMARK   69  A    between atoms: _186  and  _188
REMARK   70  A    between atoms: _188  and  _189
REMARK   71  A    between atoms: _188  and  _191
REMARK   72  A    between atoms: _191  and  _192
REMARK   73  A    between atoms: _195  and  _197
REMARK   74  A    between atoms: _197  and  _198
REMARK   75  A    between atoms: _197  and  _200
REMARK   76  A    between atoms: _200  and  _201
REMARK   77  A    between atoms: _207  and  _209
REMARK   78  A    between atoms: _209  and  _210
REMARK   79  A    between atoms: _209  and  _212
REMARK   80  A    between atoms: _212  and  _213
REMARK   81  A    between atoms: _213  and  _214
REMARK   82  A    between atoms: _219  and  _221
REMARK   83  A    between atoms: _221  and  _222
REMARK   84  A    between atoms: _221  and  _224
REMARK   85  A    between atoms: _224  and  _225
REMARK   86  A    between atoms: _227  and  _229
REMARK   87  A    between atoms: _229  and  _230
REMARK   88  A    between atoms: _229  and  _232
REMARK   89  A    between atoms: _232  and  _233
REMARK   90  A    between atoms: _238  and  _239
REMARK   91  A    between atoms: _241  and  _243
REMARK   92  A    between atoms: _243  and  _244
REMARK   93  A    between atoms: _243  and  _246
REMARK   94  A    between atoms: _246  and  _247
REMARK   95  A    between atoms: _247  and  _248
REMARK   96  A    between atoms: _248  and  _249
REMARK   97  A    between atoms: _258  and  _260
REMARK   98  A    between atoms: _260  and  _261
REMARK   99  A    between atoms: _260  and  _263
REMARK  100  A    between atoms: _263  and  _264
REMARK  101  A    between atoms: _267  and  _269
REMARK  102  A    between atoms: _269  and  _270
REMARK  103  A    between atoms: _269  and  _272
REMARK  104  A    between atoms: _272  and  _273
REMARK  105  A    between atoms: _276  and  _278
REMARK  106  A    between atoms: _278  and  _279
REMARK  107  A    between atoms: _278  and  _281
REMARK  108  A    between atoms: _281  and  _282
REMARK  109  A    between atoms: _284  and  _286
REMARK  110  A    between atoms: _286  and  _287
REMARK  111  A    between atoms: _289  and  _291
REMARK  112  A    between atoms: _291  and  _292
REMARK  113  A    between atoms: _291  and  _294
REMARK  114  A    between atoms: _297  and  _299
REMARK  115  A    between atoms: _299  and  _300
REMARK  116  A    between atoms: _299  and  _302
REMARK  117  A    between atoms: _302  and  _303
REMARK  118  A    between atoms: _308  and  _309
REMARK  119  A    between atoms: _311  and  _313
REMARK  120  A    between atoms: _313  and  _314
REMARK  121  A    between atoms: _313  and  _316
REMARK  122  A    between atoms: _316  and  _317
REMARK  123  A    between atoms: _317  and  _318
REMARK  124  A    between atoms: _320  and  _322
REMARK  125  A    between atoms: _322  and  _323
REMARK  126  A    between atoms: _322  and  _325
REMARK  127  A    between atoms: _325  and  _326
REMARK  128  A    between atoms: _328  and  _330
REMARK  129  A    between atoms: _330  and  _331
REMARK  130  A    between atoms: _333  and  _335
REMARK  131  A    between atoms: _335  and  _336
REMARK  132  A    between atoms: _335  and  _338
REMARK  133  A    between atoms: _338  and  _339
REMARK  134  A    between atoms: _342  and  _344
REMARK  135  A    between atoms: _344  and  _345
REMARK  136  A    between atoms: _344  and  _347
REMARK  137  A    between atoms: _347  and  _348
REMARK  138  A    between atoms: _351  and  _353
REMARK  139  A    between atoms: _353  and  _354
REMARK  140  A    between atoms: _353  and  _356
REMARK  141  A    between atoms: _356  and  _357
REMARK  142  A    between atoms: _363  and  _365
REMARK  143  A    between atoms: _365  and  _366
REMARK  144  A    between atoms: _365  and  _368
REMARK  145  A    between atoms: _368  and  _369
REMARK  146  A    between atoms: _374  and  _375
REMARK  147  A    between atoms: _377  and  _379
REMARK  148  A    between atoms: _379  and  _380
REMARK  149  A    between atoms: _379  and  _382
REMARK  150  A    between atoms: _382  and  _383
REMARK  151  A    between atoms: _383  and  _384
REMARK  152  A    between atoms: _389  and  _391
REMARK  153  A    between atoms: _391  and  _392
REMARK  154  A    between atoms: _391  and  _394
REMARK  155  A    between atoms: _394  and  _395
REMARK  156  A    between atoms: _400  and  _402
REMARK  157  A    between atoms: _402  and  _403
REMARK  158  A    between atoms: _405  and  _407
REMARK  159  A    between atoms: _407  and  _408
REMARK  160  A    between atoms: _407  and  _410
REMARK  161  A    between atoms: _410  and  _411
REMARK  162  A    between atoms: _413  and  _415
REMARK  163  A    between atoms: _415  and  _416
REMARK  164  A    between atoms: _415  and  _418
REMARK  165  A    between atoms: _418  and  _419
REMARK  166  A    between atoms: _421  and  _423
REMARK  167  A    between atoms: _423  and  _424
REMARK  168  A    between atoms: _423  and  _426
REMARK  169  A    between atoms: _426  and  _427
REMARK  170  A    between atoms: _432  and  _433
REMARK  171  A    between atoms: _435  and  _437
REMARK  172  A    between atoms: _437  and  _438
REMARK  173  A    between atoms: _441  and  _443
REMARK  174  A    between atoms: _443  and  _444
REMARK  175  A    between atoms: _443  and  _446
REMARK  176  A    between atoms: _446  and  _447
REMARK  177  A    between atoms: _453  and  _455
REMARK  178  A    between atoms: _455  and  _456
REMARK  179  A    between atoms: _455  and  _458
REMARK  180  A    between atoms: _458  and  _459
REMARK  181  A    between atoms: _462  and  _464
REMARK  182  A    between atoms: _464  and  _465
REMARK  183  A    between atoms: _464  and  _467
REMARK  184  A    between atoms: _467  and  _468
REMARK  185  A    between atoms: _471  and  _473
REMARK  186  A    between atoms: _473  and  _474
REMARK  187  A    between atoms: _473  and  _476
REMARK  188  A    between atoms: _476  and  _477
REMARK  189  A    between atoms: _480  and  _482
REMARK  190  A    between atoms: _482  and  _483
REMARK  191  A    between atoms: _487  and  _488
REMARK  192  A    between atoms: _493  and  _495
REMARK  193  A    between atoms: _495  and  _496
REMARK  194  A    between atoms: _495  and  _498
REMARK  195  A    between atoms: _498  and  _499
REMARK  196  A    between atoms: _504  and  _506
REMARK  197  A    between atoms: _506  and  _507
REMARK  198  A    between atoms: _506  and  _509
REMARK  199  A    between atoms: _509  and  _510
REMARK  200  A    between atoms: _516  and  _518
REMARK  201  A    between atoms: _518  and  _519
REMARK  202  A    between atoms: _518  and  _521
REMARK  203  A    between atoms: _521  and  _522
REMARK  204  A    between atoms: _522  and  _523
REMARK  205  A    between atoms: _523  and  _524
REMARK  206  A    between atoms: _524  and  _525
REMARK  207  A    between atoms: _529  and  _531
REMARK  208  A    between atoms: _531  and  _532
REMARK  209  A    between atoms: _531  and  _534
REMARK  210  A    between atoms: _534  and  _535
REMARK  211  A    between atoms: _540  and  _542
REMARK  212  A    between atoms: _542  and  _543
REMARK  213  A    between atoms: _542  and  _545
REMARK  214  A    between atoms: _545  and  _546
REMARK  215  A    between atoms: _551  and  _553
REMARK  216  A    between atoms: _553  and  _554
REMARK  217  A    between atoms: _553  and  _556
REMARK  218  A    between atoms: _556  and  _557
REMARK  219  A    between atoms: _559  and  _561
REMARK  220  A    between atoms: _561  and  _562
REMARK  221  A    between atoms: _561  and  _564
REMARK  222  A    between atoms: _564  and  _565
REMARK  223  A    between atoms: _570  and  _572
REMARK  224  A    between atoms: _572  and  _573
REMARK  225  A    between atoms: _572  and  _575
REMARK  226  A    between atoms: _575  and  _576
REMARK  227  A    between atoms: _581  and  _582
REMARK  228  A    between atoms: _584  and  _586
REMARK  229  A    between atoms: _586  and  _587
REMARK  230  A    between atoms: _586  and  _589
REMARK  231  A    between atoms: _589  and  _590
REMARK  232  A    between atoms: _593  and  _595
REMARK  233  A    between atoms: _595  and  _596
REMARK  234  A    between atoms: _598  and  _600
REMARK  235  A    between atoms: _600  and  _601
REMARK  236  A    between atoms: _600  and  _603
REMARK  237  A    between atoms: _603  and  _604
REMARK  238  A    between atoms: _609  and  _611
REMARK  239  A    between atoms: _611  and  _612
REMARK  240  A    between atoms: _611  and  _614
REMARK  241  A    between atoms: _614  and  _615
REMARK  242  A    between atoms: _617  and  _619
REMARK  243  A    between atoms: _619  and  _620
REMARK  244  A    between atoms: _619  and  _622
REMARK  245  A    between atoms: _622  and  _623
REMARK  246  A    between atoms: _626  and  _628
REMARK  247  A    between atoms: _628  and  _629
REMARK  248  A    between atoms: _628  and  _631
REMARK  249  A    between atoms: _631  and  _632
REMARK  250  A    between atoms: _634  and  _636
REMARK  251  A    between atoms: _636  and  _637
REMARK  252  A    between atoms: _636  and  _639
REMARK  253  A    between atoms: _639  and  _640
REMARK  254  A    between atoms: _643  and  _645
REMARK  255  A    between atoms: _645  and  _646
REMARK  256  A    between atoms: _645  and  _648
REMARK  257  A    between atoms: _648  and  _649
REMARK                            x       y       z     vdW  Elec       q    Type
REMARK                         _______ _______ _______ _____ _____    ______ ____
ROOT
ATOM      1  CA  SER A   4      17.357  -0.324  16.672  0.00  0.00    +0.000 C 
ENDROOT
BRANCH   1   3
ATOM      2  C   THR A   3      16.834   0.713  14.538  0.00  0.00    +0.000 C 
ATOM      3  N   SER A   4      17.566  -0.156  15.233  0.00  0.00    +0.000 N 
ATOM      4  H   SER A   4      18.293  -0.720  14.749  0.00  0.00    +0.000 HD
ATOM      5  O   THR A   3      15.962   1.404  15.060  0.00  0.00    +0.000 OA
BRANCH   2   6
ATOM      6  CA  THR A   3      17.112   0.831  13.037  0.00  0.00    +0.000 C 
BRANCH   6   8
ATOM      7  C   ILE A   2      14.953   1.070  11.945  0.00  0.00    +0.000 C 
ATOM      8  N   THR A   3      16.035   1.636  12.472  0.00  0.00    +0.000 N 
ATOM      9  H   THR A   3      16.115   2.673  12.481  0.00  0.00    +0.000 HD
ATOM     10  O   ILE A   2      14.809  -0.149  11.874  0.00  0.00    +0.000 OA
BRANCH   7  11
ATOM     11  CA  ILE A   2      13.870   2.008  11.403  0.00  0.00    +0.000 C 
BRANCH  11  13
ATOM     12  C   ARG A   1      13.502   0.821   9.308  0.00  0.00    +0.000 C 
ATOM     13  N   ILE A   2      13.039   1.232  10.486  0.00  0.00    +0.000 N 
ATOM     14  H   ILE A   2      12.064   0.995  10.760  0.00  0.00    +0.000 HD
ATOM     15  O   ARG A   1      14.635   1.082   8.906  0.00  0.00    +0.000 OA
BRANCH  12  16
ATOM     16  CA  ARG A   1      12.545  -0.017   8.464  0.00  0.00    +0.000 C 
BRANCH  16  17
ATOM     17  N   ARG A   1      12.445   0.366   7.063  0.00  0.00    +0.000 NA
ATOM     18  H   ARG A   1      13.309   0.444   6.490  0.00  0.00    +0.000 HD
ENDBRANCH  16  17
BRANCH  16  19
ATOM     19  CB  ARG A   1      12.961  -1.488   8.537  0.00  0.00    +0.000 C 
BRANCH  19  20
ATOM     20  CG  ARG A   1      12.814  -2.137   9.902  0.00  0.00    +0.000 C 
BRANCH  20  21
ATOM     21  CD  ARG A   1      13.255  -3.594   9.830  0.00  0.00    +0.000 C 
BRANCH  21  22
ATOM     22  NE  ARG A   1      12.568  -4.307   8.756  0.00  0.00    +0.330 N 
ATOM     23  HE  ARG A   1      11.751  -3.842   8.311  0.00  0.00    +0.000 HD
ATOM     24  CZ  ARG A   1      12.915  -5.509   8.308  0.00  0.00    +0.000 C 
ATOM     25  NH2 ARG A   1      13.951  -6.145   8.843  0.00  0.00    +0.330 N 
ATOM     26 HH21 ARG A   1      14.492  -5.702   9.613  0.00  0.00    +0.000 HD
ATOM     27 HH22 ARG A   1      14.222  -7.086   8.492  0.00  0.00    +0.000 HD
ATOM     28  NH1 ARG A   1      12.232  -6.072   7.315  0.00  0.00    +0.330 N 
ATOM     29 HH11 ARG A   1      12.504  -7.013   6.965  0.00  0.00    +0.000 HD
ATOM     30 HH12 ARG A   1      11.426  -5.571   6.889  0.00  0.00    +0.000 HD
ENDBRANCH  21  22
ENDBRANCH  20  21
ENDBRANCH  19  20
ENDBRANCH  16  19
ENDBRANCH  12  16
ENDBRANCH  11  13
BRANCH  11  31
ATOM     31  CB  ILE A   2      13.049   2.541  12.606  0.00  0.00    +0.000 C 
ATOM     32  CG2 ILE A   2      11.948   3.481  12.127  0.00  0.00    +0.000 C 
BRANCH  31  33
ATOM     33  CG1 ILE A   2      12.425   1.370  13.370  0.00  0.00    +0.000 C 
ATOM     34  CD1 ILE A   2      11.726   1.784  14.645  0.00  0.00    +0.000 C 
ENDBRANCH  31  33
ENDBRANCH  11  31
ENDBRANCH   7  11
ENDBRANCH   6   8
BRANCH   6  35
ATOM     35  CB  THR A   3      18.492   1.499  12.835  0.00  0.00    +0.000 C 
ATOM     36  CG2 THR A   3      18.741   1.791  11.360  0.00  0.00    +0.000 C 
BRANCH  35  37
ATOM     37  OG1 THR A   3      18.542   2.725  13.575  0.00  0.00    +0.000 OA
ATOM     38  HG1 THR A   3      17.830   3.333  13.253  0.00  0.00    +0.000 HD
ENDBRANCH  35  37
ENDBRANCH   6  35
ENDBRANCH   2   6
ENDBRANCH   1   3
BRANCH   1  39
ATOM     39  C   SER A   4      17.672   0.948  17.454  0.00  0.00    +0.000 C 
ATOM     40  O   SER A   4      17.181   1.144  18.567  0.00  0.00    +0.000 OA
ATOM     41  N   GLY A   5      18.502   1.808  16.878  0.00  0.00    +0.000 N 
ATOM     42  H   GLY A   5      18.932   1.589  15.957  0.00  0.00    +0.000 HD
BRANCH  41  43
ATOM     43  CA  GLY A   5      18.802   3.057  17.549  0.00  0.00    +0.000 C 
BRANCH  43  44
ATOM     44  C   GLY A   5      17.495   3.812  17.728  0.00  0.00    +0.000 C 
ATOM     45  O   GLY A   5      17.233   4.365  18.795  0.00  0.00    +0.000 OA
ATOM     46  N   VAL A   6      16.666   3.819  16.686  0.00  0.00    +0.000 N 
ATOM     47  H   VAL A   6      16.947   3.323  15.816  0.00  0.00    +0.000 HD
BRANCH  46  48
ATOM     48  CA  VAL A   6      15.374   4.501  16.726  0.00  0.00    +0.000 C 
BRANCH  48  49
ATOM     49  C   VAL A   6      14.366   3.697  17.550  0.00  0.00    +0.000 C 
ATOM     50  O   VAL A   6      13.534   4.267  18.260  0.00  0.00    +0.000 OA
ATOM     51  N   TYR A   7      14.439   2.372  17.453  0.00  0.00    +0.000 N 
ATOM     52  H   TYR A   7      15.143   1.943  16.819  0.00  0.00    +0.000 HD
BRANCH  51  53
ATOM     53  CA  TYR A   7      13.545   1.510  18.223  0.00  0.00    +0.000 C 
BRANCH  53  54
ATOM     54  C   TYR A   7      13.697   1.832  19.711  0.00  0.00    +0.000 C 
ATOM     55  O   TYR A   7      12.707   1.943  20.434  0.00  0.00    +0.000 OA
ATOM     56  N   UNK A   8      14.941   1.980  20.158  0.00  0.00    +0.000 N 
ATOM     57  H   UNK A   8      15.732   1.873  19.492  0.00  0.00    +0.000 HD
BRANCH  56  58
ATOM     58  C   UNK A   8      15.229   2.288  21.554  0.00  0.00    +0.000 C 
BRANCH  58  59
ATOM     59  C   UNK A   8      14.667   3.647  21.968  0.00  0.00    +0.000 C 
ATOM     60  O   UNK A   8      14.260   3.829  23.114  0.00  0.00    +0.000 OA
ENDBRANCH  58  59
BRANCH  58  61
ATOM     61  C   UNK A   8      16.740   2.257  21.818  0.00  0.00    +0.000 C 
BRANCH  61  62
ATOM     62  C   UNK A   8      17.387   0.872  21.692  0.00  0.00    +0.000 C 
BRANCH  62  63
ATOM     63 SE   UNK A   8      19.219   0.837  22.316  0.00  0.00    +0.000 Se
ATOM     64  C   UNK A   8      20.045   1.783  20.849  0.00  0.00    +0.000 C 
ENDBRANCH  62  63
ENDBRANCH  61  62
ENDBRANCH  58  61
ENDBRANCH  56  58
ENDBRANCH  53  54
BRANCH  53  65
ATOM     65  CB  TYR A   7      13.894   0.038  17.984  0.00  0.00    +0.000 C 
BRANCH  65  66
ATOM     66  CG  TYR A   7      12.968  -0.948  18.666  0.00  0.00    +0.000 A 
ATOM     67  CD2 TYR A   7      13.203  -1.367  19.978  0.00  0.00    +0.000 A 
ATOM     68  CE2 TYR A   7      12.363  -2.303  20.602  0.00  0.00    +0.000 A 
ATOM     69  CZ  TYR A   7      11.285  -2.821  19.906  0.00  0.00    +0.000 A 
ATOM     70  CE1 TYR A   7      11.032  -2.415  18.601  0.00  0.00    +0.000 A 
ATOM     71  CD1 TYR A   7      11.872  -1.481  17.993  0.00  0.00    +0.000 A 
BRANCH  69  72
ATOM     72  OH  TYR A   7      10.463  -3.750  20.493  0.00  0.00    +0.000 OA
ATOM     73  HH  TYR A   7       9.750  -4.008  19.856  0.00  0.00    +0.000 HD
ENDBRANCH  69  72
ENDBRANCH  65  66
ENDBRANCH  53  65
ENDBRANCH  51  53
ENDBRANCH  48  49
BRANCH  48  74
ATOM     74  CB  VAL A   6      14.810   4.721  15.299  0.00  0.00    +0.000 C 
ATOM     75  CG2 VAL A   6      13.460   5.415  15.367  0.00  0.00    +0.000 C 
ATOM     76  CG1 VAL A   6      15.778   5.563  14.483  0.00  0.00    +0.000 C 
ENDBRANCH  48  74
ENDBRANCH  46  48
ENDBRANCH  43  44
ENDBRANCH  41  43
ENDBRANCH   1  39
BRANCH   1  77
ATOM     77  CB  SER A   4      18.191  -1.492  17.201  0.00  0.00    +0.000 C 
BRANCH  77  78
ATOM     78  OG  SER A   4      17.657  -2.715  16.725  0.00  0.00    +0.000 OA
ATOM     79  H   SER A   4      18.200  -3.467  17.070  0.00  0.00    +0.000 HD
ENDBRANCH  77  78
ENDBRANCH   1  77
TORSDOF 33
REMARK  Name = ../refined-set-2016/1ro7/1ro7_pocket.pdb
REMARK  257 active torsions:
REMARK  status: ('A' for Active; 'I' for Inactive)
REMARK    1  A    between atoms: _1  and  _3
REMARK    2  A    between atoms: _3  and  _4
REMARK    3  A    between atoms: _3  and  _6
REMARK    4  A    between atoms: _6  and  _7
REMARK    5  A    between atoms: _10  and  _12
REMARK    6  A    between atoms: _12  and  _13
REMARK    7  A    between atoms: _16  and  _18
REMARK    8  A    between atoms: _18  and  _19
REMARK    9  A    between atoms: _21  and  _23
REMARK   10  A    between atoms: _23  and  _24
REMARK   11  A    between atoms: _23  and  _26
REMARK   12  A    between atoms: _26  and  _27
REMARK   13  A    between atoms: _32  and  _34
REMARK   14  A    between atoms: _34  and  _35
REMARK   15  A    between atoms: _38  and  _39
REMARK   16  A    between atoms: _44  and  _46
REMARK   17  A    between atoms: _46  and  _47
REMARK   18  A    between atoms: _46  and  _49
REMARK   19  A    between atoms: _49  and  _50
REMARK   20  A    between atoms: _52  and  _54
REMARK   21  A    between atoms: _54  and  _55
REMARK   22  A    between atoms: _54  and  _57
REMARK   23  A    between atoms: _57  and  _58
REMARK   24  A    between atoms: _61  and  _63
REMARK   25  A    between atoms: _63  and  _64
REMARK   26  A    between atoms: _63  and  _66
REMARK   27  A    between atoms: _66  and  _67
REMARK   28  A    between atoms: _67  and  _68
REMARK   29  A    between atoms: _68  and  _69
REMARK   30  A    between atoms: _78  and  _80
REMARK   31  A    between atoms: _80  and  _81
REMARK   32  A    between atoms: _80  and  _83
REMARK   33  A    between atoms: _85  and  _87
REMARK   34  A    between atoms: _87  and  _88
REMARK   35  A    between atoms: _87  and  _90
REMARK   36  A    between atoms: _90  and  _91
REMARK   37  A    between atoms: _96  and  _98
REMARK   38  A    between atoms: _98  and  _99
REMARK   39  A    between atoms: _98  and  _101
REMARK   40  A    between atoms: _101  and  _102
REMARK   41  A    between atoms: _102  and  _103
REMARK   42  A    between atoms: _108  and  _110
REMARK   43  A    between atoms: _110  and  _111
REMARK   44  A    between atoms: _110  and  _113
REMARK   45  A    between atoms: _113  and  _114
REMARK   46  A    between atoms: _120  and  _122
REMARK   47  A    between atoms: _122  and  _123
REMARK   48  A    between atoms: _122  and  _125
REMARK   49  A    between atoms: _125  and  _126
REMARK   50  A    between atoms: _131  and  _132
REMARK   51  A    between atoms: _134  and  _136
REMARK   52  A    between atoms: _136  and  _137
REMARK   53  A    between atoms: _136  and  _139
REMARK   54  A    between atoms: _139  and  _140
REMARK   55  A    between atoms: _146  and  _148
REMARK   56  A    between atoms: _148  and  _149
REMARK   57  A    between atoms: _148  and  _151
REMARK   58  A    between atoms: _151  and  _152
REMARK   59  A    between atoms: _157  and  _158
REMARK   60  A    between atoms: _160  and  _162
REMARK   61  A    between atoms: _162  and  _163
REMARK   62  A    between atoms: _162  and  _165
REMARK   63  A    between atoms: _165  and  _166
REMARK   64  A    between atoms: _172  and  _173
REMARK   65  A    between atoms: _178  and  _180
REMARK   66  A    between atoms: _180  and  _181
REMARK   67  A    between atoms: _180  and  _183
REMARK   68  A    between atoms: _183  and  _184
REMARK   69  A    between atoms: _186  and  _188
REMARK   70  A    between atoms: _188  and  _189
REMARK   71  A    between atoms: _188  and  _191
REMARK   72  A    between atoms: _191  and  _192
REMARK   73  A    between atoms: _195  and  _197
REMARK   74  A    between atoms: _197  and  _198
REMARK   75  A    between atoms: _197  and  _200
REMARK   76  A    between atoms: _200  and  _201
REMARK   77  A    between atoms: _207  and  _209
REMARK   78  A    between atoms: _209  and  _210
REMARK   79  A    between atoms: _209  and  _212
REMARK   80  A    between atoms: _212  and  _213
REMARK   81  A    between atoms: _213  and  _214
REMARK   82  A    between atoms: _219  and  _221
REMARK   83  A    between atoms: _221  and  _222
REMARK   84  A    between atoms: _221  and  _224
REMARK   85  A    between atoms: _224  and  _225
REMARK   86  A    between atoms: _227  and  _229
REMARK   87  A    between atoms: _229  and  _230
REMARK   88  A    between atoms: _229  and  _232
REMARK   89  A    between atoms: _232  and  _233
REMARK   90  A    between atoms: _238  and  _239
REMARK   91  A    between atoms: _241  and  _243
REMARK   92  A    between atoms: _243  and  _244
REMARK   93  A    between atoms: _243  and  _246
REMARK   94  A    between atoms: _246  and  _247
REMARK   95  A    between atoms: _247  and  _248
REMARK   96  A    between atoms: _248  and  _249
REMARK   97  A    between atoms: _258  and  _260
REMARK   98  A    between atoms: _260  and  _261
REMARK   99  A    between atoms: _260  and  _263
REMARK  100  A    between atoms: _263  and  _264
REMARK  101  A    between atoms: _267  and  _269
REMARK  102  A    between atoms: _269  and  _270
REMARK  103  A    between atoms: _269  and  _272
REMARK  104  A    between atoms: _272  and  _273
REMARK  105  A    between atoms: _276  and  _278
REMARK  106  A    between atoms: _278  and  _279
REMARK  107  A    between atoms: _278  and  _281
REMARK  108  A    between atoms: _281  and  _282
REMARK  109  A    between atoms: _284  and  _286
REMARK  110  A    between atoms: _286  and  _287
REMARK  111  A    between atoms: _289  and  _291
REMARK  112  A    between atoms: _291  and  _292
REMARK  113  A    between atoms: _291  and  _294
REMARK  114  A    between atoms: _297  and  _299
REMARK  115  A    between atoms: _299  and  _300
REMARK  116  A    between atoms: _299  and  _302
REMARK  117  A    between atoms: _302  and  _303
REMARK  118  A    between atoms: _308  and  _309
REMARK  119  A    between atoms: _311  and  _313
REMARK  120  A    between atoms: _313  and  _314
REMARK  121  A    between atoms: _313  and  _316
REMARK  122  A    between atoms: _316  and  _317
REMARK  123  A    between atoms: _317  and  _318
REMARK  124  A    between atoms: _320  and  _322
REMARK  125  A    between atoms: _322  and  _323
REMARK  126  A    between atoms: _322  and  _325
REMARK  127  A    between atoms: _325  and  _326
REMARK  128  A    between atoms: _328  and  _330
REMARK  129  A    between atoms: _330  and  _331
REMARK  130  A    between atoms: _333  and  _335
REMARK  131  A    between atoms: _335  and  _336
REMARK  132  A    between atoms: _335  and  _338
REMARK  133  A    between atoms: _338  and  _339
REMARK  134  A    between atoms: _342  and  _344
REMARK  135  A    between atoms: _344  and  _345
REMARK  136  A    between atoms: _344  and  _347
REMARK  137  A    between atoms: _347  and  _348
REMARK  138  A    between atoms: _351  and  _353
REMARK  139  A    between atoms: _353  and  _354
REMARK  140  A    between atoms: _353  and  _356
REMARK  141  A    between atoms: _356  and  _357
REMARK  142  A    between atoms: _363  and  _365
REMARK  143  A    between atoms: _365  and  _366
REMARK  144  A    between atoms: _365  and  _368
REMARK  145  A    between atoms: _368  and  _369
REMARK  146  A    between atoms: _374  and  _375
REMARK  147  A    between atoms: _377  and  _379
REMARK  148  A    between atoms: _379  and  _380
REMARK  149  A    between atoms: _379  and  _382
REMARK  150  A    between atoms: _382  and  _383
REMARK  151  A    between atoms: _383  and  _384
REMARK  152  A    between atoms: _389  and  _391
REMARK  153  A    between atoms: _391  and  _392
REMARK  154  A    between atoms: _391  and  _394
REMARK  155  A    between atoms: _394  and  _395
REMARK  156  A    between atoms: _400  and  _402
REMARK  157  A    between atoms: _402  and  _403
REMARK  158  A    between atoms: _405  and  _407
REMARK  159  A    between atoms: _407  and  _408
REMARK  160  A    between atoms: _407  and  _410
REMARK  161  A    between atoms: _410  and  _411
REMARK  162  A    between atoms: _413  and  _415
REMARK  163  A    between atoms: _415  and  _416
REMARK  164  A    between atoms: _415  and  _418
REMARK  165  A    between atoms: _418  and  _419
REMARK  166  A    between atoms: _421  and  _423
REMARK  167  A    between atoms: _423  and  _424
REMARK  168  A    between atoms: _423  and  _426
REMARK  169  A    between atoms: _426  and  _427
REMARK  170  A    between atoms: _432  and  _433
REMARK  171  A    between atoms: _435  and  _437
REMARK  172  A    between atoms: _437  and  _438
REMARK  173  A    between atoms: _441  and  _443
REMARK  174  A    between atoms: _443  and  _444
REMARK  175  A    between atoms: _443  and  _446
REMARK  176  A    between atoms: _446  and  _447
REMARK  177  A    between atoms: _453  and  _455
REMARK  178  A    between atoms: _455  and  _456
REMARK  179  A    between atoms: _455  and  _458
REMARK  180  A    between atoms: _458  and  _459
REMARK  181  A    between atoms: _462  and  _464
REMARK  182  A    between atoms: _464  and  _465
REMARK  183  A    between atoms: _464  and  _467
REMARK  184  A    between atoms: _467  and  _468
REMARK  185  A    between atoms: _471  and  _473
REMARK  186  A    between atoms: _473  and  _474
REMARK  187  A    between atoms: _473  and  _476
REMARK  188  A    between atoms: _476  and  _477
REMARK  189  A    between atoms: _480  and  _482
REMARK  190  A    between atoms: _482  and  _483
REMARK  191  A    between atoms: _487  and  _488
REMARK  192  A    between atoms: _493  and  _495
REMARK  193  A    between atoms: _495  and  _496
REMARK  194  A    between atoms: _495  and  _498
REMARK  195  A    between atoms: _498  and  _499
REMARK  196  A    between atoms: _504  and  _506
REMARK  197  A    between atoms: _506  and  _507
REMARK  198  A    between atoms: _506  and  _509
REMARK  199  A    between atoms: _509  and  _510
REMARK  200  A    between atoms: _516  and  _518
REMARK  201  A    between atoms: _518  and  _519
REMARK  202  A    between atoms: _518  and  _521
REMARK  203  A    between atoms: _521  and  _522
REMARK  204  A    between atoms: _522  and  _523
REMARK  205  A    between atoms: _523  and  _524
REMARK  206  A    between atoms: _524  and  _525
REMARK  207  A    between atoms: _529  and  _531
REMARK  208  A    between atoms: _531  and  _532
REMARK  209  A    between atoms: _531  and  _534
REMARK  210  A    between atoms: _534  and  _535
REMARK  211  A    between atoms: _540  and  _542
REMARK  212  A    between atoms: _542  and  _543
REMARK  213  A    between atoms: _542  and  _545
REMARK  214  A    between atoms: _545  and  _546
REMARK  215  A    between atoms: _551  and  _553
REMARK  216  A    between atoms: _553  and  _554
REMARK  217  A    between atoms: _553  and  _556
REMARK  218  A    between atoms: _556  and  _557
REMARK  219  A    between atoms: _559  and  _561
REMARK  220  A    between atoms: _561  and  _562
REMARK  221  A    between atoms: _561  and  _564
REMARK  222  A    between atoms: _564  and  _565
REMARK  223  A    between atoms: _570  and  _572
REMARK  224  A    between atoms: _572  and  _573
REMARK  225  A    between atoms: _572  and  _575
REMARK  226  A    between atoms: _575  and  _576
REMARK  227  A    between atoms: _581  and  _582
REMARK  228  A    between atoms: _584  and  _586
REMARK  229  A    between atoms: _586  and  _587
REMARK  230  A    between atoms: _586  and  _589
REMARK  231  A    between atoms: _589  and  _590
REMARK  232  A    between atoms: _593  and  _595
REMARK  233  A    between atoms: _595  and  _596
REMARK  234  A    between atoms: _598  and  _600
REMARK  235  A    between atoms: _600  and  _601
REMARK  236  A    between atoms: _600  and  _603
REMARK  237  A    between atoms: _603  and  _604
REMARK  238  A    between atoms: _609  and  _611
REMARK  239  A    between atoms: _611  and  _612
REMARK  240  A    between atoms: _611  and  _614
REMARK  241  A    between atoms: _614  and  _615
REMARK  242  A    between atoms: _617  and  _619
REMARK  243  A    between atoms: _619  and  _620
REMARK  244  A    between atoms: _619  and  _622
REMARK  245  A    between atoms: _622  and  _623
REMARK  246  A    between atoms: _626  and  _628
REMARK  247  A    between atoms: _628  and  _629
REMARK  248  A    between atoms: _628  and  _631
REMARK  249  A    between atoms: _631  and  _632
REMARK  250  A    between atoms: _634  and  _636
REMARK  251  A    between atoms: _636  and  _637
REMARK  252  A    between atoms: _636  and  _639
REMARK  253  A    between atoms: _639  and  _640
REMARK  254  A    between atoms: _643  and  _645
REMARK  255  A    between atoms: _645  and  _646
REMARK  256  A    between atoms: _645  and  _648
REMARK  257  A    between atoms: _648  and  _649
REMARK                            x       y       z     vdW  Elec       q    Type
REMARK                         _______ _______ _______ _____ _____    ______ ____
ROOT
ATOM      1  CA  GLN A   7      27.261   6.392   5.946  0.00  0.00    +0.149 C 
ENDROOT
BRANCH   1   3
ATOM      2  C   TYR A   6      26.304   4.304   6.750  0.00  0.00    +0.241 C 
ATOM      3  N   GLN A   7      26.756   5.527   7.003  0.00  0.00    -0.297 N 
ATOM      4  H   GLN A   7      26.749   5.876   7.983  0.00  0.00    +0.150 HD
ATOM      5  O   TYR A   6      26.279   3.820   5.618  0.00  0.00    -0.273 OA
BRANCH   2   6
ATOM      6  CA  TYR A   6      25.805   3.510   7.957  0.00  0.00    +0.153 C 
BRANCH   6   8
ATOM      7  C   PHE A   5      23.931   5.018   8.323  0.00  0.00    +0.241 C 
ATOM      8  N   TYR A   6      24.959   4.334   8.814  0.00  0.00    -0.297 N 
ATOM      9  H   TYR A   6      25.165   4.387   9.832  0.00  0.00    +0.150 HD
ATOM     10  O   PHE A   5      23.626   5.002   7.130  0.00  0.00    -0.273 OA
BRANCH   7  11
ATOM     11  CA  PHE A   5      23.120   5.844   9.313  0.00  0.00    +0.153 C 
BRANCH  11  13
ATOM     12  C   ASP A   4      24.991   6.933  10.434  0.00  0.00    +0.241 C 
ATOM     13  N   PHE A   5      23.869   6.224  10.506  0.00  0.00    -0.297 N 
ATOM     14  H   PHE A   5      23.515   5.932  11.439  0.00  0.00    +0.150 HD
ATOM     15  O   ASP A   4      25.494   7.286   9.366  0.00  0.00    -0.273 OA
BRANCH  12  16
ATOM     16  CA  ASP A   4      25.653   7.297  11.755  0.00  0.00    +0.160 C 
BRANCH  16  19
ATOM     17  C   ILE A   3      24.576   7.404  13.924  0.00  0.00    +0.241 C 
ATOM     18  O   ILE A   3      24.545   8.636  13.890  0.00  0.00    -0.273 OA
ATOM     19  N   ASP A   4      25.078   6.670  12.937  0.00  0.00    -0.297 N 
ATOM     20  H   ASP A   4      25.060   5.633  13.009  0.00  0.00    +0.150 HD
BRANCH  17  21
ATOM     21  CA  ILE A   3      24.035   6.637  15.127  0.00  0.00    +0.149 C 
BRANCH  21  23
ATOM     22  C   GLY A   2      25.700   5.753  16.653  0.00  0.00    +0.243 C 
ATOM     23  N   ILE A   3      24.971   6.782  16.236  0.00  0.00    -0.297 N 
ATOM     24  H   ILE A   3      25.069   7.704  16.707  0.00  0.00    +0.150 HD
ATOM     25  O   GLY A   2      25.614   4.637  16.148  0.00  0.00    -0.273 OA
BRANCH  22  26
ATOM     26  CA  GLY A   2      26.658   6.005  17.801  0.00  0.00    +0.176 C 
BRANCH  26  29
ATOM     27  C   SER A   1      25.332   7.398  19.267  0.00  0.00    +0.241 C 
ATOM     28  O   SER A   1      24.463   6.532  19.374  0.00  0.00    -0.274 OA
ATOM     29  N   GLY A   2      26.423   7.242  18.524  0.00  0.00    -0.295 N 
ATOM     30  H   GLY A   2      27.116   8.015  18.460  0.00  0.00    +0.150 HD
BRANCH  27  31
ATOM     31  CA  SER A   1      25.193   8.733  19.993  0.00  0.00    +0.174 C 
BRANCH  31  32
ATOM     32  N   SER A   1      23.794   8.943  20.344  0.00  0.00    -0.236 NA
ATOM     33  H   SER A   1      23.160   8.120  20.394  0.00  0.00    +0.142 HD
ENDBRANCH  31  32
BRANCH  31  34
ATOM     34  CB  SER A   1      26.075   8.733  21.248  0.00  0.00    +0.163 C 
BRANCH  34  35
ATOM     35  OG  SER A   1      25.816   7.607  22.070  0.00  0.00    -0.380 OA
ATOM     36  H   SER A   1      26.401   7.641  22.868  0.00  0.00    +0.211 HD
ENDBRANCH  34  35
ENDBRANCH  31  34
ENDBRANCH  27  31
ENDBRANCH  26  29
ENDBRANCH  22  26
ENDBRANCH  21  23
BRANCH  21  37
ATOM     37  CB  ILE A   3      22.635   7.163  15.511  0.00  0.00    +0.027 C 
ATOM     38  CG2 ILE A   3      21.686   7.050  14.322  0.00  0.00    +0.002 C 
BRANCH  37  39
ATOM     39  CG1 ILE A   3      22.095   6.357  16.697  0.00  0.00    +0.002 C 
ATOM     40  CD1 ILE A   3      20.740   6.804  17.195  0.00  0.00    +0.000 C 
ENDBRANCH  37  39
ENDBRANCH  21  37
ENDBRANCH  17  21
ENDBRANCH  16  19
BRANCH  16  41
ATOM     41  CB  ASP A   4      27.150   6.992  11.687  0.00  0.00    +0.143 C 
BRANCH  41  42
ATOM     42  CG  ASP A   4      27.902   7.527  12.891  0.00  0.00    +0.367 C 
ATOM     43  OD2 ASP A   4      27.997   6.809  13.912  0.00  0.00    -0.246 OA
ATOM     44  OD1 ASP A   4      28.386   8.679  12.821  0.00  0.00    -0.246 OA
ENDBRANCH  41  42
ENDBRANCH  16  41
ENDBRANCH  12  16
ENDBRANCH  11  13
BRANCH  11  45
ATOM     45  CB  PHE A   5      22.610   7.101   8.609  0.00  0.00    +0.055 C 
BRANCH  45  46
ATOM     46  CG  PHE A   5      22.121   8.160   9.550  0.00  0.00    -0.020 A 
ATOM     47  CD2 PHE A   5      20.991   7.948  10.332  0.00  0.00    -0.004 A 
ATOM     48  CE2 PHE A   5      20.547   8.923  11.223  0.00  0.00    -0.000 A 
ATOM     49  CZ  PHE A   5      21.239  10.127  11.336  0.00  0.00    -0.000 A 
ATOM     50  CE1 PHE A   5      22.369  10.350  10.558  0.00  0.00    -0.000 A 
ATOM     51  CD1 PHE A   5      22.804   9.367   9.670  0.00  0.00    -0.004 A 
ENDBRANCH  45  46
ENDBRANCH  11  45
ENDBRANCH   7  11
ENDBRANCH   6   8
BRANCH   6  52
ATOM     52  CB  TYR A   6      25.037   2.273   7.479  0.00  0.00    +0.055 C 
BRANCH  52  53
ATOM     53  CG  TYR A   6      24.487   1.418   8.601  0.00  0.00    -0.020 A 
ATOM     54  CD2 TYR A   6      23.270   1.727   9.208  0.00  0.00    -0.001 A 
ATOM     55  CE2 TYR A   6      22.776   0.960  10.263  0.00  0.00    +0.036 A 
ATOM     56  CZ  TYR A   6      23.508  -0.128  10.721  0.00  0.00    +0.134 A 
ATOM     57  CE1 TYR A   6      24.718  -0.454  10.133  0.00  0.00    +0.036 A 
ATOM     58  CD1 TYR A   6      25.200   0.317   9.077  0.00  0.00    -0.001 A 
BRANCH  56  59
ATOM     59  OH  TYR A   6      23.035  -0.878  11.776  0.00  0.00    -0.506 OA
ATOM     60  HH  TYR A   6      23.684  -0.841  12.523  0.00  0.00    +0.292 HD
ENDBRANCH  56  59
ENDBRANCH  52  53
ENDBRANCH   6  52
ENDBRANCH   2   6
ENDBRANCH   1   3
BRANCH   1  61
ATOM     61  C   GLN A   7      28.485   5.791   5.259  0.00  0.00    +0.241 C 
ATOM     62  N   ASN A   8      29.455   5.352   6.054  0.00  0.00    -0.297 N 
ATOM     63  H   ASN A   8      29.345   5.436   7.085  0.00  0.00    +0.150 HD
ATOM     64  O   GLN A   7      28.547   5.723   4.029  0.00  0.00    -0.273 OA
BRANCH  62  65
ATOM     65  CA  ASN A   8      30.671   4.755   5.513  0.00  0.00    +0.158 C 
BRANCH  65  66
ATOM     66  C   ASN A   8      30.505   3.246   5.393  0.00  0.00    +0.241 C 
ATOM     67  O   ASN A   8      31.476   2.494   5.482  0.00  0.00    -0.273 OA
ATOM     68  N   GLY A   9      29.264   2.814   5.187  0.00  0.00    -0.295 N 
ATOM     69  H   GLY A   9      28.486   3.500   5.115  0.00  0.00    +0.150 HD
BRANCH  68  70
ATOM     70  CA  GLY A   9      28.984   1.397   5.062  0.00  0.00    +0.176 C 
BRANCH  70  71
ATOM     71  C   GLY A   9      28.636   0.767   6.396  0.00  0.00    +0.243 C 
ATOM     72  O   GLY A   9      27.971   1.385   7.230  0.00  0.00    -0.273 OA
ATOM     73  N   SER A  10      29.090  -0.466   6.601  0.00  0.00    -0.295 N 
ATOM     74  H   SER A  10      29.651  -0.928   5.857  0.00  0.00    +0.150 HD
BRANCH  73  75
ATOM     75  CA  SER A  10      28.823  -1.189   7.839  0.00  0.00    +0.178 C 
BRANCH  75  76
ATOM     76  C   SER A  10      29.927  -0.962   8.865  0.00  0.00    +0.243 C 
ATOM     77  O   SER A  10      30.414  -1.904   9.485  0.00  0.00    -0.273 OA
ATOM     78  N   SER A  11      30.318   0.294   9.042  0.00  0.00    -0.295 N 
ATOM     79  H   SER A  11      29.867   1.051   8.489  0.00  0.00    +0.150 HD
BRANCH  78  80
ATOM     80  CA  SER A  11      31.364   0.633   9.994  0.00  0.00    +0.178 C 
BRANCH  80  81
ATOM     81  C   SER A  11      30.822   0.636  11.416  0.00  0.00    +0.243 C 
ATOM     82  N   TYR A  12      31.709   0.413  12.380  0.00  0.00    -0.297 N 
ATOM     83  H   TYR A  12      32.701   0.234  12.123  0.00  0.00    +0.150 HD
ATOM     84  O   SER A  11      29.625   0.826  11.633  0.00  0.00    -0.273 OA
BRANCH  82  85
ATOM     85  CA  TYR A  12      31.331   0.412  13.789  0.00  0.00    +0.153 C 
BRANCH  85  86
ATOM     86  C   TYR A  12      32.401   1.081  14.625  0.00  0.00    +0.241 C 
ATOM     87  N   ALA A  13      32.108   1.244  15.910  0.00  0.00    -0.297 N 
ATOM     88  H   ALA A  13      31.179   0.933  16.259  0.00  0.00    +0.150 HD
ATOM     89  O   TYR A  12      33.465   1.442  14.118  0.00  0.00    -0.273 OA
BRANCH  87  90
ATOM     90  CA  ALA A  13      33.046   1.844  16.843  0.00  0.00    +0.149 C 
ATOM     91  CB  ALA A  13      32.292   2.483  17.996  0.00  0.00    +0.031 C 
BRANCH  90  92
ATOM     92  C   ALA A  13      33.969   0.746  17.364  0.00  0.00    +0.241 C 
ATOM     93  O   ALA A  13      34.508   0.848  18.466  0.00  0.00    -0.273 OA
ATOM     94  N   PHE A  14      34.138  -0.305  16.562  0.00  0.00    -0.298 N 
ATOM     95  H   PHE A  14      33.648  -0.316  15.645  0.00  0.00    +0.150 HD
BRANCH  94  96
ATOM     96  CA  PHE A  14      34.985  -1.444  16.919  0.00  0.00    +0.141 C 
BRANCH  96  97
ATOM     97  C   PHE A  14      35.053  -2.434  15.762  0.00  0.00    +0.227 C 
ATOM     98  O   PHE A  14      34.402  -2.242  14.734  0.00  0.00    -0.286 OA
ENDBRANCH  96  97
BRANCH  96  99
ATOM     99  CB  PHE A  14      34.425  -2.147  18.163  0.00  0.00    +0.054 C 
BRANCH  99 100
ATOM    100  CG  PHE A  14      32.945  -2.431  18.089  0.00  0.00    -0.020 A 
ATOM    101  CD2 PHE A  14      32.059  -1.784  18.947  0.00  0.00    -0.004 A 
ATOM    102  CE2 PHE A  14      30.686  -2.018  18.869  0.00  0.00    -0.000 A 
ATOM    103  CZ  PHE A  14      30.184  -2.912  17.919  0.00  0.00    -0.000 A 
ATOM    104  CE1 PHE A  14      31.059  -3.567  17.056  0.00  0.00    -0.000 A 
ATOM    105  CD1 PHE A  14      32.434  -3.323  17.145  0.00  0.00    -0.004 A 
ENDBRANCH  99 100
ENDBRANCH  96  99
ENDBRANCH  94  96
ENDBRANCH  90  92
ENDBRANCH  87  90
ENDBRANCH  85  86
BRANCH  85 106
ATOM    106  CB  TYR A  12      31.120  -1.016  14.304  0.00  0.00    +0.055 C 
BRANCH 106 107
ATOM    107  CG  TYR A  12      29.929  -1.689  13.683  0.00  0.00    -0.020 A 
ATOM    108  CD2 TYR A  12      28.675  -1.615  14.288  0.00  0.00    -0.001 A 
ATOM    109  CE2 TYR A  12      27.552  -2.162  13.679  0.00  0.00    +0.036 A 
ATOM    110  CZ  TYR A  12      27.683  -2.795  12.454  0.00  0.00    +0.134 A 
ATOM    111  CE1 TYR A  12      28.922  -2.888  11.837  0.00  0.00    +0.036 A 
ATOM    112  CD1 TYR A  12      30.035  -2.335  12.453  0.00  0.00    -0.001 A 
BRANCH 110 113
ATOM    113  OH  TYR A  12      26.577  -3.316  11.834  0.00  0.00    -0.506 OA
ATOM    114  HH  TYR A  12      26.845  -3.729  10.975  0.00  0.00    +0.292 HD
ENDBRANCH 110 113
ENDBRANCH 106 107
ENDBRANCH  85 106
ENDBRANCH  82  85
ENDBRANCH  80  81
BRANCH  80 115
ATOM    115  CB  SER A  11      31.945   2.010   9.669  0.00  0.00    +0.166 C 
BRANCH 115 116
ATOM    116  OG  SER A  11      30.937   3.003   9.734  0.00  0.00    -0.380 OA
ATOM    117  H   SER A  11      30.225   2.792   9.080  0.00  0.00    +0.211 HD
ENDBRANCH 115 116
ENDBRANCH  80 115
ENDBRANCH  78  80
ENDBRANCH  75  76
BRANCH  75 118
ATOM    118  CB  SER A  10      28.688  -2.684   7.547  0.00  0.00    +0.166 C 
BRANCH 118 119
ATOM    119  OG  SER A  10      27.656  -2.915   6.606  0.00  0.00    -0.380 OA
ATOM    120  H   SER A  10      27.583  -3.886   6.430  0.00  0.00    +0.211 HD
ENDBRANCH 118 119
ENDBRANCH  75 118
ENDBRANCH  73  75
ENDBRANCH  70  71
ENDBRANCH  68  70
ENDBRANCH  65  66
BRANCH  65 121
ATOM    121  CB  ASN A   8      31.866   5.075   6.416  0.00  0.00    +0.114 C 
BRANCH 121 122
ATOM    122  CG  ASN A   8      32.173   6.561   6.473  0.00  0.00    +0.222 C 
ATOM    123  OD1 ASN A   8      33.060   6.995   7.206  0.00  0.00    -0.275 OA
ATOM    124  ND2 ASN A   8      31.440   7.349   5.694  0.00  0.00    -0.329 N 
ATOM    125 HD21 ASN A   8      31.607   8.376   5.689  0.00  0.00    +0.145 HD
ATOM    126 HD22 ASN A   8      30.700   6.939   5.089  0.00  0.00    +0.145 HD
ENDBRANCH 121 122
ENDBRANCH  65 121
ENDBRANCH  62  65
ENDBRANCH   1  61
BRANCH   1 127
ATOM    127  CB  GLN A   7      27.599   7.770   6.522  0.00  0.00    +0.039 C 
BRANCH 127 128
ATOM    128  CG  GLN A   7      28.441   7.729   7.787  0.00  0.00    +0.087 C 
BRANCH 128 129
ATOM    129  CD  GLN A   7      28.609   9.098   8.422  0.00  0.00    +0.219 C 
ATOM    130  NE2 GLN A   7      28.080   9.259   9.632  0.00  0.00    -0.329 N 
ATOM    131 HE21 GLN A   7      28.160  10.176  10.117  0.00  0.00    +0.145 HD
ATOM    132 HE22 GLN A   7      27.586   8.468  10.093  0.00  0.00    +0.145 HD
ATOM    133  OE1 GLN A   7      29.204  10.002   7.831  0.00  0.00    -0.275 OA
ENDBRANCH 128 129
ENDBRANCH 127 128
ENDBRANCH   1 127
TORSDOF 53
REMARK  Name = ../refined-set-2016/1ro7/1ro7_pocket.pdb
REMARK  257 active torsions:
REMARK  status: ('A' for Active; 'I' for Inactive)
REMARK    1  A    between atoms: _1  and  _3
REMARK    2  A    between atoms: _3  and  _4
REMARK    3  A    between atoms: _3  and  _6
REMARK    4  A    between atoms: _6  and  _7
REMARK    5  A    between atoms: _10  and  _12
REMARK    6  A    between atoms: _12  and  _13
REMARK    7  A    between atoms: _16  and  _18
REMARK    8  A    between atoms: _18  and  _19
REMARK    9  A    between atoms: _21  and  _23
REMARK   10  A    between atoms: _23  and  _24
REMARK   11  A    between atoms: _23  and  _26
REMARK   12  A    between atoms: _26  and  _27
REMARK   13  A    between atoms: _32  and  _34
REMARK   14  A    between atoms: _34  and  _35
REMARK   15  A    between atoms: _38  and  _39
REMARK   16  A    between atoms: _44  and  _46
REMARK   17  A    between atoms: _46  and  _47
REMARK   18  A    between atoms: _46  and  _49
REMARK   19  A    between atoms: _49  and  _50
REMARK   20  A    between atoms: _52  and  _54
REMARK   21  A    between atoms: _54  and  _55
REMARK   22  A    between atoms: _54  and  _57
REMARK   23  A    between atoms: _57  and  _58
REMARK   24  A    between atoms: _61  and  _63
REMARK   25  A    between atoms: _63  and  _64
REMARK   26  A    between atoms: _63  and  _66
REMARK   27  A    between atoms: _66  and  _67
REMARK   28  A    between atoms: _67  and  _68
REMARK   29  A    between atoms: _68  and  _69
REMARK   30  A    between atoms: _78  and  _80
REMARK   31  A    between atoms: _80  and  _81
REMARK   32  A    between atoms: _80  and  _83
REMARK   33  A    between atoms: _85  and  _87
REMARK   34  A    between atoms: _87  and  _88
REMARK   35  A    between atoms: _87  and  _90
REMARK   36  A    between atoms: _90  and  _91
REMARK   37  A    between atoms: _96  and  _98
REMARK   38  A    between atoms: _98  and  _99
REMARK   39  A    between atoms: _98  and  _101
REMARK   40  A    between atoms: _101  and  _102
REMARK   41  A    between atoms: _102  and  _103
REMARK   42  A    between atoms: _108  and  _110
REMARK   43  A    between atoms: _110  and  _111
REMARK   44  A    between atoms: _110  and  _113
REMARK   45  A    between atoms: _113  and  _114
REMARK   46  A    between atoms: _120  and  _122
REMARK   47  A    between atoms: _122  and  _123
REMARK   48  A    between atoms: _122  and  _125
REMARK   49  A    between atoms: _125  and  _126
REMARK   50  A    between atoms: _131  and  _132
REMARK   51  A    between atoms: _134  and  _136
REMARK   52  A    between atoms: _136  and  _137
REMARK   53  A    between atoms: _136  and  _139
REMARK   54  A    between atoms: _139  and  _140
REMARK   55  A    between atoms: _146  and  _148
REMARK   56  A    between atoms: _148  and  _149
REMARK   57  A    between atoms: _148  and  _151
REMARK   58  A    between atoms: _151  and  _152
REMARK   59  A    between atoms: _157  and  _158
REMARK   60  A    between atoms: _160  and  _162
REMARK   61  A    between atoms: _162  and  _163
REMARK   62  A    between atoms: _162  and  _165
REMARK   63  A    between atoms: _165  and  _166
REMARK   64  A    between atoms: _172  and  _173
REMARK   65  A    between atoms: _178  and  _180
REMARK   66  A    between atoms: _180  and  _181
REMARK   67  A    between atoms: _180  and  _183
REMARK   68  A    between atoms: _183  and  _184
REMARK   69  A    between atoms: _186  and  _188
REMARK   70  A    between atoms: _188  and  _189
REMARK   71  A    between atoms: _188  and  _191
REMARK   72  A    between atoms: _191  and  _192
REMARK   73  A    between atoms: _195  and  _197
REMARK   74  A    between atoms: _197  and  _198
REMARK   75  A    between atoms: _197  and  _200
REMARK   76  A    between atoms: _200  and  _201
REMARK   77  A    between atoms: _207  and  _209
REMARK   78  A    between atoms: _209  and  _210
REMARK   79  A    between atoms: _209  and  _212
REMARK   80  A    between atoms: _212  and  _213
REMARK   81  A    between atoms: _213  and  _214
REMARK   82  A    between atoms: _219  and  _221
REMARK   83  A    between atoms: _221  and  _222
REMARK   84  A    between atoms: _221  and  _224
REMARK   85  A    between atoms: _224  and  _225
REMARK   86  A    between atoms: _227  and  _229
REMARK   87  A    between atoms: _229  and  _230
REMARK   88  A    between atoms: _229  and  _232
REMARK   89  A    between atoms: _232  and  _233
REMARK   90  A    between atoms: _238  and  _239
REMARK   91  A    between atoms: _241  and  _243
REMARK   92  A    between atoms: _243  and  _244
REMARK   93  A    between atoms: _243  and  _246
REMARK   94  A    between atoms: _246  and  _247
REMARK   95  A    between atoms: _247  and  _248
REMARK   96  A    between atoms: _248  and  _249
REMARK   97  A    between atoms: _258  and  _260
REMARK   98  A    between atoms: _260  and  _261
REMARK   99  A    between atoms: _260  and  _263
REMARK  100  A    between atoms: _263  and  _264
REMARK  101  A    between atoms: _267  and  _269
REMARK  102  A    between atoms: _269  and  _270
REMARK  103  A    between atoms: _269  and  _272
REMARK  104  A    between atoms: _272  and  _273
REMARK  105  A    between atoms: _276  and  _278
REMARK  106  A    between atoms: _278  and  _279
REMARK  107  A    between atoms: _278  and  _281
REMARK  108  A    between atoms: _281  and  _282
REMARK  109  A    between atoms: _284  and  _286
REMARK  110  A    between atoms: _286  and  _287
REMARK  111  A    between atoms: _289  and  _291
REMARK  112  A    between atoms: _291  and  _292
REMARK  113  A    between atoms: _291  and  _294
REMARK  114  A    between atoms: _297  and  _299
REMARK  115  A    between atoms: _299  and  _300
REMARK  116  A    between atoms: _299  and  _302
REMARK  117  A    between atoms: _302  and  _303
REMARK  118  A    between atoms: _308  and  _309
REMARK  119  A    between atoms: _311  and  _313
REMARK  120  A    between atoms: _313  and  _314
REMARK  121  A    between atoms: _313  and  _316
REMARK  122  A    between atoms: _316  and  _317
REMARK  123  A    between atoms: _317  and  _318
REMARK  124  A    between atoms: _320  and  _322
REMARK  125  A    between atoms: _322  and  _323
REMARK  126  A    between atoms: _322  and  _325
REMARK  127  A    between atoms: _325  and  _326
REMARK  128  A    between atoms: _328  and  _330
REMARK  129  A    between atoms: _330  and  _331
REMARK  130  A    between atoms: _333  and  _335
REMARK  131  A    between atoms: _335  and  _336
REMARK  132  A    between atoms: _335  and  _338
REMARK  133  A    between atoms: _338  and  _339
REMARK  134  A    between atoms: _342  and  _344
REMARK  135  A    between atoms: _344  and  _345
REMARK  136  A    between atoms: _344  and  _347
REMARK  137  A    between atoms: _347  and  _348
REMARK  138  A    between atoms: _351  and  _353
REMARK  139  A    between atoms: _353  and  _354
REMARK  140  A    between atoms: _353  and  _356
REMARK  141  A    between atoms: _356  and  _357
REMARK  142  A    between atoms: _363  and  _365
REMARK  143  A    between atoms: _365  and  _366
REMARK  144  A    between atoms: _365  and  _368
REMARK  145  A    between atoms: _368  and  _369
REMARK  146  A    between atoms: _374  and  _375
REMARK  147  A    between atoms: _377  and  _379
REMARK  148  A    between atoms: _379  and  _380
REMARK  149  A    between atoms: _379  and  _382
REMARK  150  A    between atoms: _382  and  _383
REMARK  151  A    between atoms: _383  and  _384
REMARK  152  A    between atoms: _389  and  _391
REMARK  153  A    between atoms: _391  and  _392
REMARK  154  A    between atoms: _391  and  _394
REMARK  155  A    between atoms: _394  and  _395
REMARK  156  A    between atoms: _400  and  _402
REMARK  157  A    between atoms: _402  and  _403
REMARK  158  A    between atoms: _405  and  _407
REMARK  159  A    between atoms: _407  and  _408
REMARK  160  A    between atoms: _407  and  _410
REMARK  161  A    between atoms: _410  and  _411
REMARK  162  A    between atoms: _413  and  _415
REMARK  163  A    between atoms: _415  and  _416
REMARK  164  A    between atoms: _415  and  _418
REMARK  165  A    between atoms: _418  and  _419
REMARK  166  A    between atoms: _421  and  _423
REMARK  167  A    between atoms: _423  and  _424
REMARK  168  A    between atoms: _423  and  _426
REMARK  169  A    between atoms: _426  and  _427
REMARK  170  A    between atoms: _432  and  _433
REMARK  171  A    between atoms: _435  and  _437
REMARK  172  A    between atoms: _437  and  _438
REMARK  173  A    between atoms: _441  and  _443
REMARK  174  A    between atoms: _443  and  _444
REMARK  175  A    between atoms: _443  and  _446
REMARK  176  A    between atoms: _446  and  _447
REMARK  177  A    between atoms: _453  and  _455
REMARK  178  A    between atoms: _455  and  _456
REMARK  179  A    between atoms: _455  and  _458
REMARK  180  A    between atoms: _458  and  _459
REMARK  181  A    between atoms: _462  and  _464
REMARK  182  A    between atoms: _464  and  _465
REMARK  183  A    between atoms: _464  and  _467
REMARK  184  A    between atoms: _467  and  _468
REMARK  185  A    between atoms: _471  and  _473
REMARK  186  A    between atoms: _473  and  _474
REMARK  187  A    between atoms: _473  and  _476
REMARK  188  A    between atoms: _476  and  _477
REMARK  189  A    between atoms: _480  and  _482
REMARK  190  A    between atoms: _482  and  _483
REMARK  191  A    between atoms: _487  and  _488
REMARK  192  A    between atoms: _493  and  _495
REMARK  193  A    between atoms: _495  and  _496
REMARK  194  A    between atoms: _495  and  _498
REMARK  195  A    between atoms: _498  and  _499
REMARK  196  A    between atoms: _504  and  _506
REMARK  197  A    between atoms: _506  and  _507
REMARK  198  A    between atoms: _506  and  _509
REMARK  199  A    between atoms: _509  and  _510
REMARK  200  A    between atoms: _516  and  _518
REMARK  201  A    between atoms: _518  and  _519
REMARK  202  A    between atoms: _518  and  _521
REMARK  203  A    between atoms: _521  and  _522
REMARK  204  A    between atoms: _522  and  _523
REMARK  205  A    between atoms: _523  and  _524
REMARK  206  A    between atoms: _524  and  _525
REMARK  207  A    between atoms: _529  and  _531
REMARK  208  A    between atoms: _531  and  _532
REMARK  209  A    between atoms: _531  and  _534
REMARK  210  A    between atoms: _534  and  _535
REMARK  211  A    between atoms: _540  and  _542
REMARK  212  A    between atoms: _542  and  _543
REMARK  213  A    between atoms: _542  and  _545
REMARK  214  A    between atoms: _545  and  _546
REMARK  215  A    between atoms: _551  and  _553
REMARK  216  A    between atoms: _553  and  _554
REMARK  217  A    between atoms: _553  and  _556
REMARK  218  A    between atoms: _556  and  _557
REMARK  219  A    between atoms: _559  and  _561
REMARK  220  A    between atoms: _561  and  _562
REMARK  221  A    between atoms: _561  and  _564
REMARK  222  A    between atoms: _564  and  _565
REMARK  223  A    between atoms: _570  and  _572
REMARK  224  A    between atoms: _572  and  _573
REMARK  225  A    between atoms: _572  and  _575
REMARK  226  A    between atoms: _575  and  _576
REMARK  227  A    between atoms: _581  and  _582
REMARK  228  A    between atoms: _584  and  _586
REMARK  229  A    between atoms: _586  and  _587
REMARK  230  A    between atoms: _586  and  _589
REMARK  231  A    between atoms: _589  and  _590
REMARK  232  A    between atoms: _593  and  _595
REMARK  233  A    between atoms: _595  and  _596
REMARK  234  A    between atoms: _598  and  _600
REMARK  235  A    between atoms: _600  and  _601
REMARK  236  A    between atoms: _600  and  _603
REMARK  237  A    between atoms: _603  and  _604
REMARK  238  A    between atoms: _609  and  _611
REMARK  239  A    between atoms: _611  and  _612
REMARK  240  A    between atoms: _611  and  _614
REMARK  241  A    between atoms: _614  and  _615
REMARK  242  A    between atoms: _617  and  _619
REMARK  243  A    between atoms: _619  and  _620
REMARK  244  A    between atoms: _619  and  _622
REMARK  245  A    between atoms: _622  and  _623
REMARK  246  A    between atoms: _626  and  _628
REMARK  247  A    between atoms: _628  and  _629
REMARK  248  A    between atoms: _628  and  _631
REMARK  249  A    between atoms: _631  and  _632
REMARK  250  A    between atoms: _634  and  _636
REMARK  251  A    between atoms: _636  and  _637
REMARK  252  A    between atoms: _636  and  _639
REMARK  253  A    between atoms: _639  and  _640
REMARK  254  A    between atoms: _643  and  _645
REMARK  255  A    between atoms: _645  and  _646
REMARK  256  A    between atoms: _645  and  _648
REMARK  257  A    between atoms: _648  and  _649
REMARK                            x       y       z     vdW  Elec       q    Type
REMARK                         _______ _______ _______ _____ _____    ______ ____
ROOT
ATOM      1  CA  THR A   1      32.686  -6.388  14.601  0.00  0.00    +0.160 C 
ENDROOT
BRANCH   1   2
ATOM      2  N   THR A   1      33.805  -5.480  14.399  0.00  0.00    -0.237 NA
ATOM      3  H   THR A   1      33.762  -4.774  13.636  0.00  0.00    +0.142 HD
ENDBRANCH   1   2
BRANCH   1   4
ATOM      4  CB  THR A   1      31.379  -5.742  14.112  0.00  0.00    +0.134 C 
ATOM      5  CG2 THR A   1      31.374  -5.633  12.594  0.00  0.00    +0.034 C 
BRANCH   4   6
ATOM      6  OG1 THR A   1      30.270  -6.539  14.530  0.00  0.00    -0.383 OA
ATOM      7  HG1 THR A   1      30.354  -7.447  14.145  0.00  0.00    +0.210 HD
ENDBRANCH   4   6
ENDBRANCH   1   4
BRANCH   1   8
ATOM      8  C   THR A   1      32.840  -7.746  13.921  0.00  0.00    +0.227 C 
ATOM      9  O   THR A   1      32.021  -8.641  14.127  0.00  0.00    -0.287 OA
ENDBRANCH   1   8
TORSDOF 4
REMARK  Name = ../refined-set-2016/1ro7/1ro7_pocket.pdb
REMARK  257 active torsions:
REMARK  status: ('A' for Active; 'I' for Inactive)
REMARK    1  A    between atoms: _1  and  _3
REMARK    2  A    between atoms: _3  and  _4
REMARK    3  A    between atoms: _3  and  _6
REMARK    4  A    between atoms: _6  and  _7
REMARK    5  A    between atoms: _10  and  _12
REMARK    6  A    between atoms: _12  and  _13
REMARK    7  A    between atoms: _16  and  _18
REMARK    8  A    between atoms: _18  and  _19
REMARK    9  A    between atoms: _21  and  _23
REMARK   10  A    between atoms: _23  and  _24
REMARK   11  A    between atoms: _23  and  _26
REMARK   12  A    between atoms: _26  and  _27
REMARK   13  A    between atoms: _32  and  _34
REMARK   14  A    between atoms: _34  and  _35
REMARK   15  A    between atoms: _38  and  _39
REMARK   16  A    between atoms: _44  and  _46
REMARK   17  A    between atoms: _46  and  _47
REMARK   18  A    between atoms: _46  and  _49
REMARK   19  A    between atoms: _49  and  _50
REMARK   20  A    between atoms: _52  and  _54
REMARK   21  A    between atoms: _54  and  _55
REMARK   22  A    between atoms: _54  and  _57
REMARK   23  A    between atoms: _57  and  _58
REMARK   24  A    between atoms: _61  and  _63
REMARK   25  A    between atoms: _63  and  _64
REMARK   26  A    between atoms: _63  and  _66
REMARK   27  A    between atoms: _66  and  _67
REMARK   28  A    between atoms: _67  and  _68
REMARK   29  A    between atoms: _68  and  _69
REMARK   30  A    between atoms: _78  and  _80
REMARK   31  A    between atoms: _80  and  _81
REMARK   32  A    between atoms: _80  and  _83
REMARK   33  A    between atoms: _85  and  _87
REMARK   34  A    between atoms: _87  and  _88
REMARK   35  A    between atoms: _87  and  _90
REMARK   36  A    between atoms: _90  and  _91
REMARK   37  A    between atoms: _96  and  _98
REMARK   38  A    between atoms: _98  and  _99
REMARK   39  A    between atoms: _98  and  _101
REMARK   40  A    between atoms: _101  and  _102
REMARK   41  A    between atoms: _102  and  _103
REMARK   42  A    between atoms: _108  and  _110
REMARK   43  A    between atoms: _110  and  _111
REMARK   44  A    between atoms: _110  and  _113
REMARK   45  A    between atoms: _113  and  _114
REMARK   46  A    between atoms: _120  and  _122
REMARK   47  A    between atoms: _122  and  _123
REMARK   48  A    between atoms: _122  and  _125
REMARK   49  A    between atoms: _125  and  _126
REMARK   50  A    between atoms: _131  and  _132
REMARK   51  A    between atoms: _134  and  _136
REMARK   52  A    between atoms: _136  and  _137
REMARK   53  A    between atoms: _136  and  _139
REMARK   54  A    between atoms: _139  and  _140
REMARK   55  A    between atoms: _146  and  _148
REMARK   56  A    between atoms: _148  and  _149
REMARK   57  A    between atoms: _148  and  _151
REMARK   58  A    between atoms: _151  and  _152
REMARK   59  A    between atoms: _157  and  _158
REMARK   60  A    between atoms: _160  and  _162
REMARK   61  A    between atoms: _162  and  _163
REMARK   62  A    between atoms: _162  and  _165
REMARK   63  A    between atoms: _165  and  _166
REMARK   64  A    between atoms: _172  and  _173
REMARK   65  A    between atoms: _178  and  _180
REMARK   66  A    between atoms: _180  and  _181
REMARK   67  A    between atoms: _180  and  _183
REMARK   68  A    between atoms: _183  and  _184
REMARK   69  A    between atoms: _186  and  _188
REMARK   70  A    between atoms: _188  and  _189
REMARK   71  A    between atoms: _188  and  _191
REMARK   72  A    between atoms: _191  and  _192
REMARK   73  A    between atoms: _195  and  _197
REMARK   74  A    between atoms: _197  and  _198
REMARK   75  A    between atoms: _197  and  _200
REMARK   76  A    between atoms: _200  and  _201
REMARK   77  A    between atoms: _207  and  _209
REMARK   78  A    between atoms: _209  and  _210
REMARK   79  A    between atoms: _209  and  _212
REMARK   80  A    between atoms: _212  and  _213
REMARK   81  A    between atoms: _213  and  _214
REMARK   82  A    between atoms: _219  and  _221
REMARK   83  A    between atoms: _221  and  _222
REMARK   84  A    between atoms: _221  and  _224
REMARK   85  A    between atoms: _224  and  _225
REMARK   86  A    between atoms: _227  and  _229
REMARK   87  A    between atoms: _229  and  _230
REMARK   88  A    between atoms: _229  and  _232
REMARK   89  A    between atoms: _232  and  _233
REMARK   90  A    between atoms: _238  and  _239
REMARK   91  A    between atoms: _241  and  _243
REMARK   92  A    between atoms: _243  and  _244
REMARK   93  A    between atoms: _243  and  _246
REMARK   94  A    between atoms: _246  and  _247
REMARK   95  A    between atoms: _247  and  _248
REMARK   96  A    between atoms: _248  and  _249
REMARK   97  A    between atoms: _258  and  _260
REMARK   98  A    between atoms: _260  and  _261
REMARK   99  A    between atoms: _260  and  _263
REMARK  100  A    between atoms: _263  and  _264
REMARK  101  A    between atoms: _267  and  _269
REMARK  102  A    between atoms: _269  and  _270
REMARK  103  A    between atoms: _269  and  _272
REMARK  104  A    between atoms: _272  and  _273
REMARK  105  A    between atoms: _276  and  _278
REMARK  106  A    between atoms: _278  and  _279
REMARK  107  A    between atoms: _278  and  _281
REMARK  108  A    between atoms: _281  and  _282
REMARK  109  A    between atoms: _284  and  _286
REMARK  110  A    between atoms: _286  and  _287
REMARK  111  A    between atoms: _289  and  _291
REMARK  112  A    between atoms: _291  and  _292
REMARK  113  A    between atoms: _291  and  _294
REMARK  114  A    between atoms: _297  and  _299
REMARK  115  A    between atoms: _299  and  _300
REMARK  116  A    between atoms: _299  and  _302
REMARK  117  A    between atoms: _302  and  _303
REMARK  118  A    between atoms: _308  and  _309
REMARK  119  A    between atoms: _311  and  _313
REMARK  120  A    between atoms: _313  and  _314
REMARK  121  A    between atoms: _313  and  _316
REMARK  122  A    between atoms: _316  and  _317
REMARK  123  A    between atoms: _317  and  _318
REMARK  124  A    between atoms: _320  and  _322
REMARK  125  A    between atoms: _322  and  _323
REMARK  126  A    between atoms: _322  and  _325
REMARK  127  A    between atoms: _325  and  _326
REMARK  128  A    between atoms: _328  and  _330
REMARK  129  A    between atoms: _330  and  _331
REMARK  130  A    between atoms: _333  and  _335
REMARK  131  A    between atoms: _335  and  _336
REMARK  132  A    between atoms: _335  and  _338
REMARK  133  A    between atoms: _338  and  _339
REMARK  134  A    between atoms: _342  and  _344
REMARK  135  A    between atoms: _344  and  _345
REMARK  136  A    between atoms: _344  and  _347
REMARK  137  A    between atoms: _347  and  _348
REMARK  138  A    between atoms: _351  and  _353
REMARK  139  A    between atoms: _353  and  _354
REMARK  140  A    between atoms: _353  and  _356
REMARK  141  A    between atoms: _356  and  _357
REMARK  142  A    between atoms: _363  and  _365
REMARK  143  A    between atoms: _365  and  _366
REMARK  144  A    between atoms: _365  and  _368
REMARK  145  A    between atoms: _368  and  _369
REMARK  146  A    between atoms: _374  and  _375
REMARK  147  A    between atoms: _377  and  _379
REMARK  148  A    between atoms: _379  and  _380
REMARK  149  A    between atoms: _379  and  _382
REMARK  150  A    between atoms: _382  and  _383
REMARK  151  A    between atoms: _383  and  _384
REMARK  152  A    between atoms: _389  and  _391
REMARK  153  A    between atoms: _391  and  _392
REMARK  154  A    between atoms: _391  and  _394
REMARK  155  A    between atoms: _394  and  _395
REMARK  156  A    between atoms: _400  and  _402
REMARK  157  A    between atoms: _402  and  _403
REMARK  158  A    between atoms: _405  and  _407
REMARK  159  A    between atoms: _407  and  _408
REMARK  160  A    between atoms: _407  and  _410
REMARK  161  A    between atoms: _410  and  _411
REMARK  162  A    between atoms: _413  and  _415
REMARK  163  A    between atoms: _415  and  _416
REMARK  164  A    between atoms: _415  and  _418
REMARK  165  A    between atoms: _418  and  _419
REMARK  166  A    between atoms: _421  and  _423
REMARK  167  A    between atoms: _423  and  _424
REMARK  168  A    between atoms: _423  and  _426
REMARK  169  A    between atoms: _426  and  _427
REMARK  170  A    between atoms: _432  and  _433
REMARK  171  A    between atoms: _435  and  _437
REMARK  172  A    between atoms: _437  and  _438
REMARK  173  A    between atoms: _441  and  _443
REMARK  174  A    between atoms: _443  and  _444
REMARK  175  A    between atoms: _443  and  _446
REMARK  176  A    between atoms: _446  and  _447
REMARK  177  A    between atoms: _453  and  _455
REMARK  178  A    between atoms: _455  and  _456
REMARK  179  A    between atoms: _455  and  _458
REMARK  180  A    between atoms: _458  and  _459
REMARK  181  A    between atoms: _462  and  _464
REMARK  182  A    between atoms: _464  and  _465
REMARK  183  A    between atoms: _464  and  _467
REMARK  184  A    between atoms: _467  and  _468
REMARK  185  A    between atoms: _471  and  _473
REMARK  186  A    between atoms: _473  and  _474
REMARK  187  A    between atoms: _473  and  _476
REMARK  188  A    between atoms: _476  and  _477
REMARK  189  A    between atoms: _480  and  _482
REMARK  190  A    between atoms: _482  and  _483
REMARK  191  A    between atoms: _487  and  _488
REMARK  192  A    between atoms: _493  and  _495
REMARK  193  A    between atoms: _495  and  _496
REMARK  194  A    between atoms: _495  and  _498
REMARK  195  A    between atoms: _498  and  _499
REMARK  196  A    between atoms: _504  and  _506
REMARK  197  A    between atoms: _506  and  _507
REMARK  198  A    between atoms: _506  and  _509
REMARK  199  A    between atoms: _509  and  _510
REMARK  200  A    between atoms: _516  and  _518
REMARK  201  A    between atoms: _518  and  _519
REMARK  202  A    between atoms: _518  and  _521
REMARK  203  A    between atoms: _521  and  _522
REMARK  204  A    between atoms: _522  and  _523
REMARK  205  A    between atoms: _523  and  _524
REMARK  206  A    between atoms: _524  and  _525
REMARK  207  A    between atoms: _529  and  _531
REMARK  208  A    between atoms: _531  and  _532
REMARK  209  A    between atoms: _531  and  _534
REMARK  210  A    between atoms: _534  and  _535
REMARK  211  A    between atoms: _540  and  _542
REMARK  212  A    between atoms: _542  and  _543
REMARK  213  A    between atoms: _542  and  _545
REMARK  214  A    between atoms: _545  and  _546
REMARK  215  A    between atoms: _551  and  _553
REMARK  216  A    between atoms: _553  and  _554
REMARK  217  A    between atoms: _553  and  _556
REMARK  218  A    between atoms: _556  and  _557
REMARK  219  A    between atoms: _559  and  _561
REMARK  220  A    between atoms: _561  and  _562
REMARK  221  A    between atoms: _561  and  _564
REMARK  222  A    between atoms: _564  and  _565
REMARK  223  A    between atoms: _570  and  _572
REMARK  224  A    between atoms: _572  and  _573
REMARK  225  A    between atoms: _572  and  _575
REMARK  226  A    between atoms: _575  and  _576
REMARK  227  A    between atoms: _581  and  _582
REMARK  228  A    between atoms: _584  and  _586
REMARK  229  A    between atoms: _586  and  _587
REMARK  230  A    between atoms: _586  and  _589
REMARK  231  A    between atoms: _589  and  _590
REMARK  232  A    between atoms: _593  and  _595
REMARK  233  A    between atoms: _595  and  _596
REMARK  234  A    between atoms: _598  and  _600
REMARK  235  A    between atoms: _600  and  _601
REMARK  236  A    between atoms: _600  and  _603
REMARK  237  A    between atoms: _603  and  _604
REMARK  238  A    between atoms: _609  and  _611
REMARK  239  A    between atoms: _611  and  _612
REMARK  240  A    between atoms: _611  and  _614
REMARK  241  A    between atoms: _614  and  _615
REMARK  242  A    between atoms: _617  and  _619
REMARK  243  A    between atoms: _619  and  _620
REMARK  244  A    between atoms: _619  and  _622
REMARK  245  A    between atoms: _622  and  _623
REMARK  246  A    between atoms: _626  and  _628
REMARK  247  A    between atoms: _628  and  _629
REMARK  248  A    between atoms: _628  and  _631
REMARK  249  A    between atoms: _631  and  _632
REMARK  250  A    between atoms: _634  and  _636
REMARK  251  A    between atoms: _636  and  _637
REMARK  252  A    between atoms: _636  and  _639
REMARK  253  A    between atoms: _639  and  _640
REMARK  254  A    between atoms: _643  and  _645
REMARK  255  A    between atoms: _645  and  _646
REMARK  256  A    between atoms: _645  and  _648
REMARK  257  A    between atoms: _648  and  _649
REMARK                            x       y       z     vdW  Elec       q    Type
REMARK                         _______ _______ _______ _____ _____    ______ ____
ROOT
ATOM      1  CA  LEU A   1      29.189 -13.308  15.390  0.00  0.00    +0.133 C 
ENDROOT
BRANCH   1   2
ATOM      2  N   LEU A   1      30.210 -14.159  15.986  0.00  0.00    -0.239 NA
ATOM      3  H   LEU A   1      31.062 -13.735  16.405  0.00  0.00    +0.142 HD
ENDBRANCH   1   2
BRANCH   1   4
ATOM      4  C   LEU A   1      29.036 -13.632  13.907  0.00  0.00    +0.224 C 
ATOM      5  O   LEU A   1      27.925 -13.694  13.394  0.00  0.00    -0.287 OA
ENDBRANCH   1   4
BRANCH   1   6
ATOM      6  CB  LEU A   1      29.546 -11.829  15.557  0.00  0.00    +0.025 C 
BRANCH   6   7
ATOM      7  CG  LEU A   1      28.499 -10.833  15.046  0.00  0.00    +0.002 C 
ATOM      8  CD2 LEU A   1      27.221 -10.951  15.871  0.00  0.00    +0.000 C 
ATOM      9  CD1 LEU A   1      29.048  -9.417  15.133  0.00  0.00    +0.000 C 
ENDBRANCH   6   7
ENDBRANCH   1   6
TORSDOF 4
REMARK  Name = ../refined-set-2016/1ro7/1ro7_pocket.pdb
REMARK  257 active torsions:
REMARK  status: ('A' for Active; 'I' for Inactive)
REMARK    1  A    between atoms: _1  and  _3
REMARK    2  A    between atoms: _3  and  _4
REMARK    3  A    between atoms: _3  and  _6
REMARK    4  A    between atoms: _6  and  _7
REMARK    5  A    between atoms: _10  and  _12
REMARK    6  A    between atoms: _12  and  _13
REMARK    7  A    between atoms: _16  and  _18
REMARK    8  A    between atoms: _18  and  _19
REMARK    9  A    between atoms: _21  and  _23
REMARK   10  A    between atoms: _23  and  _24
REMARK   11  A    between atoms: _23  and  _26
REMARK   12  A    between atoms: _26  and  _27
REMARK   13  A    between atoms: _32  and  _34
REMARK   14  A    between atoms: _34  and  _35
REMARK   15  A    between atoms: _38  and  _39
REMARK   16  A    between atoms: _44  and  _46
REMARK   17  A    between atoms: _46  and  _47
REMARK   18  A    between atoms: _46  and  _49
REMARK   19  A    between atoms: _49  and  _50
REMARK   20  A    between atoms: _52  and  _54
REMARK   21  A    between atoms: _54  and  _55
REMARK   22  A    between atoms: _54  and  _57
REMARK   23  A    between atoms: _57  and  _58
REMARK   24  A    between atoms: _61  and  _63
REMARK   25  A    between atoms: _63  and  _64
REMARK   26  A    between atoms: _63  and  _66
REMARK   27  A    between atoms: _66  and  _67
REMARK   28  A    between atoms: _67  and  _68
REMARK   29  A    between atoms: _68  and  _69
REMARK   30  A    between atoms: _78  and  _80
REMARK   31  A    between atoms: _80  and  _81
REMARK   32  A    between atoms: _80  and  _83
REMARK   33  A    between atoms: _85  and  _87
REMARK   34  A    between atoms: _87  and  _88
REMARK   35  A    between atoms: _87  and  _90
REMARK   36  A    between atoms: _90  and  _91
REMARK   37  A    between atoms: _96  and  _98
REMARK   38  A    between atoms: _98  and  _99
REMARK   39  A    between atoms: _98  and  _101
REMARK   40  A    between atoms: _101  and  _102
REMARK   41  A    between atoms: _102  and  _103
REMARK   42  A    between atoms: _108  and  _110
REMARK   43  A    between atoms: _110  and  _111
REMARK   44  A    between atoms: _110  and  _113
REMARK   45  A    between atoms: _113  and  _114
REMARK   46  A    between atoms: _120  and  _122
REMARK   47  A    between atoms: _122  and  _123
REMARK   48  A    between atoms: _122  and  _125
REMARK   49  A    between atoms: _125  and  _126
REMARK   50  A    between atoms: _131  and  _132
REMARK   51  A    between atoms: _134  and  _136
REMARK   52  A    between atoms: _136  and  _137
REMARK   53  A    between atoms: _136  and  _139
REMARK   54  A    between atoms: _139  and  _140
REMARK   55  A    between atoms: _146  and  _148
REMARK   56  A    between atoms: _148  and  _149
REMARK   57  A    between atoms: _148  and  _151
REMARK   58  A    between atoms: _151  and  _152
REMARK   59  A    between atoms: _157  and  _158
REMARK   60  A    between atoms: _160  and  _162
REMARK   61  A    between atoms: _162  and  _163
REMARK   62  A    between atoms: _162  and  _165
REMARK   63  A    between atoms: _165  and  _166
REMARK   64  A    between atoms: _172  and  _173
REMARK   65  A    between atoms: _178  and  _180
REMARK   66  A    between atoms: _180  and  _181
REMARK   67  A    between atoms: _180  and  _183
REMARK   68  A    between atoms: _183  and  _184
REMARK   69  A    between atoms: _186  and  _188
REMARK   70  A    between atoms: _188  and  _189
REMARK   71  A    between atoms: _188  and  _191
REMARK   72  A    between atoms: _191  and  _192
REMARK   73  A    between atoms: _195  and  _197
REMARK   74  A    between atoms: _197  and  _198
REMARK   75  A    between atoms: _197  and  _200
REMARK   76  A    between atoms: _200  and  _201
REMARK   77  A    between atoms: _207  and  _209
REMARK   78  A    between atoms: _209  and  _210
REMARK   79  A    between atoms: _209  and  _212
REMARK   80  A    between atoms: _212  and  _213
REMARK   81  A    between atoms: _213  and  _214
REMARK   82  A    between atoms: _219  and  _221
REMARK   83  A    between atoms: _221  and  _222
REMARK   84  A    between atoms: _221  and  _224
REMARK   85  A    between atoms: _224  and  _225
REMARK   86  A    between atoms: _227  and  _229
REMARK   87  A    between atoms: _229  and  _230
REMARK   88  A    between atoms: _229  and  _232
REMARK   89  A    between atoms: _232  and  _233
REMARK   90  A    between atoms: _238  and  _239
REMARK   91  A    between atoms: _241  and  _243
REMARK   92  A    between atoms: _243  and  _244
REMARK   93  A    between atoms: _243  and  _246
REMARK   94  A    between atoms: _246  and  _247
REMARK   95  A    between atoms: _247  and  _248
REMARK   96  A    between atoms: _248  and  _249
REMARK   97  A    between atoms: _258  and  _260
REMARK   98  A    between atoms: _260  and  _261
REMARK   99  A    between atoms: _260  and  _263
REMARK  100  A    between atoms: _263  and  _264
REMARK  101  A    between atoms: _267  and  _269
REMARK  102  A    between atoms: _269  and  _270
REMARK  103  A    between atoms: _269  and  _272
REMARK  104  A    between atoms: _272  and  _273
REMARK  105  A    between atoms: _276  and  _278
REMARK  106  A    between atoms: _278  and  _279
REMARK  107  A    between atoms: _278  and  _281
REMARK  108  A    between atoms: _281  and  _282
REMARK  109  A    between atoms: _284  and  _286
REMARK  110  A    between atoms: _286  and  _287
REMARK  111  A    between atoms: _289  and  _291
REMARK  112  A    between atoms: _291  and  _292
REMARK  113  A    between atoms: _291  and  _294
REMARK  114  A    between atoms: _297  and  _299
REMARK  115  A    between atoms: _299  and  _300
REMARK  116  A    between atoms: _299  and  _302
REMARK  117  A    between atoms: _302  and  _303
REMARK  118  A    between atoms: _308  and  _309
REMARK  119  A    between atoms: _311  and  _313
REMARK  120  A    between atoms: _313  and  _314
REMARK  121  A    between atoms: _313  and  _316
REMARK  122  A    between atoms: _316  and  _317
REMARK  123  A    between atoms: _317  and  _318
REMARK  124  A    between atoms: _320  and  _322
REMARK  125  A    between atoms: _322  and  _323
REMARK  126  A    between atoms: _322  and  _325
REMARK  127  A    between atoms: _325  and  _326
REMARK  128  A    between atoms: _328  and  _330
REMARK  129  A    between atoms: _330  and  _331
REMARK  130  A    between atoms: _333  and  _335
REMARK  131  A    between atoms: _335  and  _336
REMARK  132  A    between atoms: _335  and  _338
REMARK  133  A    between atoms: _338  and  _339
REMARK  134  A    between atoms: _342  and  _344
REMARK  135  A    between atoms: _344  and  _345
REMARK  136  A    between atoms: _344  and  _347
REMARK  137  A    between atoms: _347  and  _348
REMARK  138  A    between atoms: _351  and  _353
REMARK  139  A    between atoms: _353  and  _354
REMARK  140  A    between atoms: _353  and  _356
REMARK  141  A    between atoms: _356  and  _357
REMARK  142  A    between atoms: _363  and  _365
REMARK  143  A    between atoms: _365  and  _366
REMARK  144  A    between atoms: _365  and  _368
REMARK  145  A    between atoms: _368  and  _369
REMARK  146  A    between atoms: _374  and  _375
REMARK  147  A    between atoms: _377  and  _379
REMARK  148  A    between atoms: _379  and  _380
REMARK  149  A    between atoms: _379  and  _382
REMARK  150  A    between atoms: _382  and  _383
REMARK  151  A    between atoms: _383  and  _384
REMARK  152  A    between atoms: _389  and  _391
REMARK  153  A    between atoms: _391  and  _392
REMARK  154  A    between atoms: _391  and  _394
REMARK  155  A    between atoms: _394  and  _395
REMARK  156  A    between atoms: _400  and  _402
REMARK  157  A    between atoms: _402  and  _403
REMARK  158  A    between atoms: _405  and  _407
REMARK  159  A    between atoms: _407  and  _408
REMARK  160  A    between atoms: _407  and  _410
REMARK  161  A    between atoms: _410  and  _411
REMARK  162  A    between atoms: _413  and  _415
REMARK  163  A    between atoms: _415  and  _416
REMARK  164  A    between atoms: _415  and  _418
REMARK  165  A    between atoms: _418  and  _419
REMARK  166  A    between atoms: _421  and  _423
REMARK  167  A    between atoms: _423  and  _424
REMARK  168  A    between atoms: _423  and  _426
REMARK  169  A    between atoms: _426  and  _427
REMARK  170  A    between atoms: _432  and  _433
REMARK  171  A    between atoms: _435  and  _437
REMARK  172  A    between atoms: _437  and  _438
REMARK  173  A    between atoms: _441  and  _443
REMARK  174  A    between atoms: _443  and  _444
REMARK  175  A    between atoms: _443  and  _446
REMARK  176  A    between atoms: _446  and  _447
REMARK  177  A    between atoms: _453  and  _455
REMARK  178  A    between atoms: _455  and  _456
REMARK  179  A    between atoms: _455  and  _458
REMARK  180  A    between atoms: _458  and  _459
REMARK  181  A    between atoms: _462  and  _464
REMARK  182  A    between atoms: _464  and  _465
REMARK  183  A    between atoms: _464  and  _467
REMARK  184  A    between atoms: _467  and  _468
REMARK  185  A    between atoms: _471  and  _473
REMARK  186  A    between atoms: _473  and  _474
REMARK  187  A    between atoms: _473  and  _476
REMARK  188  A    between atoms: _476  and  _477
REMARK  189  A    between atoms: _480  and  _482
REMARK  190  A    between atoms: _482  and  _483
REMARK  191  A    between atoms: _487  and  _488
REMARK  192  A    between atoms: _493  and  _495
REMARK  193  A    between atoms: _495  and  _496
REMARK  194  A    between atoms: _495  and  _498
REMARK  195  A    between atoms: _498  and  _499
REMARK  196  A    between atoms: _504  and  _506
REMARK  197  A    between atoms: _506  and  _507
REMARK  198  A    between atoms: _506  and  _509
REMARK  199  A    between atoms: _509  and  _510
REMARK  200  A    between atoms: _516  and  _518
REMARK  201  A    between atoms: _518  and  _519
REMARK  202  A    between atoms: _518  and  _521
REMARK  203  A    between atoms: _521  and  _522
REMARK  204  A    between atoms: _522  and  _523
REMARK  205  A    between atoms: _523  and  _524
REMARK  206  A    between atoms: _524  and  _525
REMARK  207  A    between atoms: _529  and  _531
REMARK  208  A    between atoms: _531  and  _532
REMARK  209  A    between atoms: _531  and  _534
REMARK  210  A    between atoms: _534  and  _535
REMARK  211  A    between atoms: _540  and  _542
REMARK  212  A    between atoms: _542  and  _543
REMARK  213  A    between atoms: _542  and  _545
REMARK  214  A    between atoms: _545  and  _546
REMARK  215  A    between atoms: _551  and  _553
REMARK  216  A    between atoms: _553  and  _554
REMARK  217  A    between atoms: _553  and  _556
REMARK  218  A    between atoms: _556  and  _557
REMARK  219  A    between atoms: _559  and  _561
REMARK  220  A    between atoms: _561  and  _562
REMARK  221  A    between atoms: _561  and  _564
REMARK  222  A    between atoms: _564  and  _565
REMARK  223  A    between atoms: _570  and  _572
REMARK  224  A    between atoms: _572  and  _573
REMARK  225  A    between atoms: _572  and  _575
REMARK  226  A    between atoms: _575  and  _576
REMARK  227  A    between atoms: _581  and  _582
REMARK  228  A    between atoms: _584  and  _586
REMARK  229  A    between atoms: _586  and  _587
REMARK  230  A    between atoms: _586  and  _589
REMARK  231  A    between atoms: _589  and  _590
REMARK  232  A    between atoms: _593  and  _595
REMARK  233  A    between atoms: _595  and  _596
REMARK  234  A    between atoms: _598  and  _600
REMARK  235  A    between atoms: _600  and  _601
REMARK  236  A    between atoms: _600  and  _603
REMARK  237  A    between atoms: _603  and  _604
REMARK  238  A    between atoms: _609  and  _611
REMARK  239  A    between atoms: _611  and  _612
REMARK  240  A    between atoms: _611  and  _614
REMARK  241  A    between atoms: _614  and  _615
REMARK  242  A    between atoms: _617  and  _619
REMARK  243  A    between atoms: _619  and  _620
REMARK  244  A    between atoms: _619  and  _622
REMARK  245  A    between atoms: _622  and  _623
REMARK  246  A    between atoms: _626  and  _628
REMARK  247  A    between atoms: _628  and  _629
REMARK  248  A    between atoms: _628  and  _631
REMARK  249  A    between atoms: _631  and  _632
REMARK  250  A    between atoms: _634  and  _636
REMARK  251  A    between atoms: _636  and  _637
REMARK  252  A    between atoms: _636  and  _639
REMARK  253  A    between atoms: _639  and  _640
REMARK  254  A    between atoms: _643  and  _645
REMARK  255  A    between atoms: _645  and  _646
REMARK  256  A    between atoms: _645  and  _648
REMARK  257  A    between atoms: _648  and  _649
REMARK                            x       y       z     vdW  Elec       q    Type
REMARK                         _______ _______ _______ _____ _____    ______ ____
ROOT
ATOM      1  C   ASN A   4      26.810 -10.254   7.097  0.00  0.00    +0.241 C 
ATOM      2  N   PHE A   5      27.362 -10.445   8.291  0.00  0.00    -0.297 N 
ATOM      3  H   PHE A   5      27.022 -11.219   8.897  0.00  0.00    +0.150 HD
ATOM      4  O   ASN A   4      27.175  -9.353   6.335  0.00  0.00    -0.273 OA
ENDROOT
BRANCH   1   5
ATOM      5  CA  ASN A   4      25.697 -11.220   6.689  0.00  0.00    +0.158 C 
BRANCH   5   7
ATOM      6  C   PRO A   3      26.834 -13.216   7.414  0.00  0.00    +0.241 C 
ATOM      7  N   ASN A   4      25.757 -12.444   7.487  0.00  0.00    -0.297 N 
ATOM      8  H   ASN A   4      24.963 -12.707   8.106  0.00  0.00    +0.150 HD
ATOM      9  O   PRO A   3      27.782 -12.950   6.680  0.00  0.00    -0.273 OA
BRANCH   6  16
ATOM     10  C   ALA A   2      25.922 -13.549  10.368  0.00  0.00    +0.244 C 
ATOM     11  O   ALA A   2      26.605 -12.528  10.296  0.00  0.00    -0.273 OA
ATOM     12  N   PRO A   3      25.977 -14.514   9.436  0.00  0.00    -0.272 N 
ATOM     13  CD  PRO A   3      24.977 -15.585   9.284  0.00  0.00    +0.094 C 
ATOM     14  CG  PRO A   3      24.998 -15.833   7.792  0.00  0.00    +0.024 C 
ATOM     15  CB  PRO A   3      26.461 -15.722   7.486  0.00  0.00    +0.031 C 
ATOM     16  CA  PRO A   3      26.867 -14.476   8.269  0.00  0.00    +0.152 C 
BRANCH  10  17
ATOM     17  CA  ALA A   2      24.950 -13.760  11.524  0.00  0.00    +0.149 C 
ATOM     18  CB  ALA A   2      24.705 -12.452  12.266  0.00  0.00    +0.031 C 
BRANCH  17  21
ATOM     19  C   LEU A   1      24.895 -15.783  12.885  0.00  0.00    +0.238 C 
ATOM     20  O   LEU A   1      23.720 -16.014  12.606  0.00  0.00    -0.274 OA
ATOM     21  N   ALA A   2      25.558 -14.728  12.427  0.00  0.00    -0.297 N 
ATOM     22  H   ALA A   2      26.545 -14.588  12.723  0.00  0.00    +0.150 HD
BRANCH  19  23
ATOM     23  CA  LEU A   1      25.659 -16.702  13.826  0.00  0.00    +0.145 C 
BRANCH  23  24
ATOM     24  N   LEU A   1      27.081 -16.870  13.534  0.00  0.00    -0.238 NA
ATOM     25  H   LEU A   1      27.779 -16.378  14.127  0.00  0.00    +0.142 HD
ENDBRANCH  23  24
BRANCH  23  26
ATOM     26  CB  LEU A   1      25.479 -16.192  15.253  0.00  0.00    +0.026 C 
BRANCH  26  27
ATOM     27  CG  LEU A   1      25.992 -17.092  16.375  0.00  0.00    +0.002 C 
ATOM     28  CD2 LEU A   1      25.866 -16.355  17.707  0.00  0.00    +0.000 C 
ATOM     29  CD1 LEU A   1      25.200 -18.397  16.391  0.00  0.00    +0.000 C 
ENDBRANCH  26  27
ENDBRANCH  23  26
ENDBRANCH  19  23
ENDBRANCH  17  21
ENDBRANCH  10  17
ENDBRANCH   6  16
ENDBRANCH   5   7
BRANCH   5  30
ATOM     30  CB  ASN A   4      24.319 -10.558   6.828  0.00  0.00    +0.114 C 
BRANCH  30  31
ATOM     31  CG  ASN A   4      23.267 -11.203   5.927  0.00  0.00    +0.222 C 
ATOM     32  OD1 ASN A   4      22.083 -11.249   6.260  0.00  0.00    -0.275 OA
ATOM     33  ND2 ASN A   4      23.702 -11.691   4.773  0.00  0.00    -0.329 N 
ATOM     34 HD21 ASN A   4      24.712 -11.631   4.531  0.00  0.00    +0.145 HD
ATOM     35 HD22 ASN A   4      23.033 -12.133   4.110  0.00  0.00    +0.145 HD
ENDBRANCH  30  31
ENDBRANCH   5  30
ENDBRANCH   1   5
BRANCH   2  36
ATOM     36  CA  PHE A   5      28.440  -9.580   8.760  0.00  0.00    +0.153 C 
BRANCH  36  37
ATOM     37  C   PHE A   5      29.727  -9.812   7.969  0.00  0.00    +0.241 C 
ATOM     38  O   PHE A   5      30.642  -8.992   8.008  0.00  0.00    -0.273 OA
ATOM     39  N   LYS A   6      29.793 -10.928   7.248  0.00  0.00    -0.297 N 
ATOM     40  H   LYS A   6      28.990 -11.588   7.253  0.00  0.00    +0.150 HD
BRANCH  39  41
ATOM     41  CA  LYS A   6      30.973 -11.240   6.452  0.00  0.00    +0.149 C 
BRANCH  41  42
ATOM     42  C   LYS A   6      30.986 -10.449   5.143  0.00  0.00    +0.241 C 
ATOM     43  N   ASN A   7      29.835  -9.896   4.772  0.00  0.00    -0.298 N 
ATOM     44  H   ASN A   7      28.996 -10.026   5.373  0.00  0.00    +0.150 HD
ATOM     45  O   LYS A   6      32.023 -10.344   4.485  0.00  0.00    -0.273 OA
BRANCH  43  46
ATOM     46  CA  ASN A   7      29.713  -9.110   3.545  0.00  0.00    +0.146 C 
BRANCH  46  47
ATOM     47  C   ASN A   7      30.422  -7.770   3.688  0.00  0.00    +0.227 C 
ATOM     48  O   ASN A   7      30.536  -7.236   4.792  0.00  0.00    -0.286 OA
ENDBRANCH  46  47
BRANCH  46  49
ATOM     49  CB  ASN A   7      28.241  -8.851   3.228  0.00  0.00    +0.112 C 
BRANCH  49  50
ATOM     50  CG  ASN A   7      27.510 -10.100   2.792  0.00  0.00    +0.222 C 
ATOM     51  OD1 ASN A   7      26.323 -10.266   3.078  0.00  0.00    -0.275 OA
ATOM     52  ND2 ASN A   7      28.209 -10.981   2.081  0.00  0.00    -0.329 N 
ATOM     53 HD21 ASN A   7      29.209 -10.798   1.864  0.00  0.00    +0.145 HD
ATOM     54 HD22 ASN A   7      27.755 -11.853   1.742  0.00  0.00    +0.145 HD
ENDBRANCH  49  50
ENDBRANCH  46  49
ENDBRANCH  43  46
ENDBRANCH  41  42
BRANCH  41  55
ATOM     55  CB  LYS A   6      31.036 -12.744   6.156  0.00  0.00    +0.029 C 
BRANCH  55  56
ATOM     56  CG  LYS A   6      31.197 -13.604   7.406  0.00  0.00    +0.000 C 
BRANCH  56  57
ATOM     57  CD  LYS A   6      31.390 -15.081   7.080  0.00  0.00    -0.024 C 
BRANCH  57  58
ATOM     58  CE  LYS A   6      30.155 -15.684   6.435  0.00  0.00    -0.086 C 
BRANCH  58  59
ATOM     59  NZ  LYS A   6      30.314 -17.149   6.213  0.00  0.00    +0.380 N 
ATOM     60  HZ1 LYS A   6      30.473 -17.621   7.126  0.00  0.00    -0.089 HD
ATOM     61  HZ2 LYS A   6      29.452 -17.527   5.771  0.00  0.00    -0.089 HD
ATOM     62  HZ3 LYS A   6      31.128 -17.317   5.588  0.00  0.00    -0.089 HD
ENDBRANCH  58  59
ENDBRANCH  57  58
ENDBRANCH  56  57
ENDBRANCH  55  56
ENDBRANCH  41  55
ENDBRANCH  39  41
ENDBRANCH  36  37
BRANCH  36  63
ATOM     63  CB  PHE A   5      28.691  -9.800  10.255  0.00  0.00    +0.055 C 
BRANCH  63  64
ATOM     64  CG  PHE A   5      27.786  -8.995  11.146  0.00  0.00    -0.020 A 
ATOM     65  CD2 PHE A   5      26.766  -9.611  11.864  0.00  0.00    -0.004 A 
ATOM     66  CE2 PHE A   5      25.924  -8.869  12.684  0.00  0.00    -0.000 A 
ATOM     67  CZ  PHE A   5      26.099  -7.488  12.795  0.00  0.00    -0.000 A 
ATOM     68  CE1 PHE A   5      27.115  -6.863  12.083  0.00  0.00    -0.000 A 
ATOM     69  CD1 PHE A   5      27.951  -7.617  11.264  0.00  0.00    -0.004 A 
ENDBRANCH  63  64
ENDBRANCH  36  63
ENDBRANCH   2  36
TORSDOF 26
REMARK  Name = ../refined-set-2016/1ro7/1ro7_pocket.pdb
REMARK  257 active torsions:
REMARK  status: ('A' for Active; 'I' for Inactive)
REMARK    1  A    between atoms: _1  and  _3
REMARK    2  A    between atoms: _3  and  _4
REMARK    3  A    between atoms: _3  and  _6
REMARK    4  A    between atoms: _6  and  _7
REMARK    5  A    between atoms: _10  and  _12
REMARK    6  A    between atoms: _12  and  _13
REMARK    7  A    between atoms: _16  and  _18
REMARK    8  A    between atoms: _18  and  _19
REMARK    9  A    between atoms: _21  and  _23
REMARK   10  A    between atoms: _23  and  _24
REMARK   11  A    between atoms: _23  and  _26
REMARK   12  A    between atoms: _26  and  _27
REMARK   13  A    between atoms: _32  and  _34
REMARK   14  A    between atoms: _34  and  _35
REMARK   15  A    between atoms: _38  and  _39
REMARK   16  A    between atoms: _44  and  _46
REMARK   17  A    between atoms: _46  and  _47
REMARK   18  A    between atoms: _46  and  _49
REMARK   19  A    between atoms: _49  and  _50
REMARK   20  A    between atoms: _52  and  _54
REMARK   21  A    between atoms: _54  and  _55
REMARK   22  A    between atoms: _54  and  _57
REMARK   23  A    between atoms: _57  and  _58
REMARK   24  A    between atoms: _61  and  _63
REMARK   25  A    between atoms: _63  and  _64
REMARK   26  A    between atoms: _63  and  _66
REMARK   27  A    between atoms: _66  and  _67
REMARK   28  A    between atoms: _67  and  _68
REMARK   29  A    between atoms: _68  and  _69
REMARK   30  A    between atoms: _78  and  _80
REMARK   31  A    between atoms: _80  and  _81
REMARK   32  A    between atoms: _80  and  _83
REMARK   33  A    between atoms: _85  and  _87
REMARK   34  A    between atoms: _87  and  _88
REMARK   35  A    between atoms: _87  and  _90
REMARK   36  A    between atoms: _90  and  _91
REMARK   37  A    between atoms: _96  and  _98
REMARK   38  A    between atoms: _98  and  _99
REMARK   39  A    between atoms: _98  and  _101
REMARK   40  A    between atoms: _101  and  _102
REMARK   41  A    between atoms: _102  and  _103
REMARK   42  A    between atoms: _108  and  _110
REMARK   43  A    between atoms: _110  and  _111
REMARK   44  A    between atoms: _110  and  _113
REMARK   45  A    between atoms: _113  and  _114
REMARK   46  A    between atoms: _120  and  _122
REMARK   47  A    between atoms: _122  and  _123
REMARK   48  A    between atoms: _122  and  _125
REMARK   49  A    between atoms: _125  and  _126
REMARK   50  A    between atoms: _131  and  _132
REMARK   51  A    between atoms: _134  and  _136
REMARK   52  A    between atoms: _136  and  _137
REMARK   53  A    between atoms: _136  and  _139
REMARK   54  A    between atoms: _139  and  _140
REMARK   55  A    between atoms: _146  and  _148
REMARK   56  A    between atoms: _148  and  _149
REMARK   57  A    between atoms: _148  and  _151
REMARK   58  A    between atoms: _151  and  _152
REMARK   59  A    between atoms: _157  and  _158
REMARK   60  A    between atoms: _160  and  _162
REMARK   61  A    between atoms: _162  and  _163
REMARK   62  A    between atoms: _162  and  _165
REMARK   63  A    between atoms: _165  and  _166
REMARK   64  A    between atoms: _172  and  _173
REMARK   65  A    between atoms: _178  and  _180
REMARK   66  A    between atoms: _180  and  _181
REMARK   67  A    between atoms: _180  and  _183
REMARK   68  A    between atoms: _183  and  _184
REMARK   69  A    between atoms: _186  and  _188
REMARK   70  A    between atoms: _188  and  _189
REMARK   71  A    between atoms: _188  and  _191
REMARK   72  A    between atoms: _191  and  _192
REMARK   73  A    between atoms: _195  and  _197
REMARK   74  A    between atoms: _197  and  _198
REMARK   75  A    between atoms: _197  and  _200
REMARK   76  A    between atoms: _200  and  _201
REMARK   77  A    between atoms: _207  and  _209
REMARK   78  A    between atoms: _209  and  _210
REMARK   79  A    between atoms: _209  and  _212
REMARK   80  A    between atoms: _212  and  _213
REMARK   81  A    between atoms: _213  and  _214
REMARK   82  A    between atoms: _219  and  _221
REMARK   83  A    between atoms: _221  and  _222
REMARK   84  A    between atoms: _221  and  _224
REMARK   85  A    between atoms: _224  and  _225
REMARK   86  A    between atoms: _227  and  _229
REMARK   87  A    between atoms: _229  and  _230
REMARK   88  A    between atoms: _229  and  _232
REMARK   89  A    between atoms: _232  and  _233
REMARK   90  A    between atoms: _238  and  _239
REMARK   91  A    between atoms: _241  and  _243
REMARK   92  A    between atoms: _243  and  _244
REMARK   93  A    between atoms: _243  and  _246
REMARK   94  A    between atoms: _246  and  _247
REMARK   95  A    between atoms: _247  and  _248
REMARK   96  A    between atoms: _248  and  _249
REMARK   97  A    between atoms: _258  and  _260
REMARK   98  A    between atoms: _260  and  _261
REMARK   99  A    between atoms: _260  and  _263
REMARK  100  A    between atoms: _263  and  _264
REMARK  101  A    between atoms: _267  and  _269
REMARK  102  A    between atoms: _269  and  _270
REMARK  103  A    between atoms: _269  and  _272
REMARK  104  A    between atoms: _272  and  _273
REMARK  105  A    between atoms: _276  and  _278
REMARK  106  A    between atoms: _278  and  _279
REMARK  107  A    between atoms: _278  and  _281
REMARK  108  A    between atoms: _281  and  _282
REMARK  109  A    between atoms: _284  and  _286
REMARK  110  A    between atoms: _286  and  _287
REMARK  111  A    between atoms: _289  and  _291
REMARK  112  A    between atoms: _291  and  _292
REMARK  113  A    between atoms: _291  and  _294
REMARK  114  A    between atoms: _297  and  _299
REMARK  115  A    between atoms: _299  and  _300
REMARK  116  A    between atoms: _299  and  _302
REMARK  117  A    between atoms: _302  and  _303
REMARK  118  A    between atoms: _308  and  _309
REMARK  119  A    between atoms: _311  and  _313
REMARK  120  A    between atoms: _313  and  _314
REMARK  121  A    between atoms: _313  and  _316
REMARK  122  A    between atoms: _316  and  _317
REMARK  123  A    between atoms: _317  and  _318
REMARK  124  A    between atoms: _320  and  _322
REMARK  125  A    between atoms: _322  and  _323
REMARK  126  A    between atoms: _322  and  _325
REMARK  127  A    between atoms: _325  and  _326
REMARK  128  A    between atoms: _328  and  _330
REMARK  129  A    between atoms: _330  and  _331
REMARK  130  A    between atoms: _333  and  _335
REMARK  131  A    between atoms: _335  and  _336
REMARK  132  A    between atoms: _335  and  _338
REMARK  133  A    between atoms: _338  and  _339
REMARK  134  A    between atoms: _342  and  _344
REMARK  135  A    between atoms: _344  and  _345
REMARK  136  A    between atoms: _344  and  _347
REMARK  137  A    between atoms: _347  and  _348
REMARK  138  A    between atoms: _351  and  _353
REMARK  139  A    between atoms: _353  and  _354
REMARK  140  A    between atoms: _353  and  _356
REMARK  141  A    between atoms: _356  and  _357
REMARK  142  A    between atoms: _363  and  _365
REMARK  143  A    between atoms: _365  and  _366
REMARK  144  A    between atoms: _365  and  _368
REMARK  145  A    between atoms: _368  and  _369
REMARK  146  A    between atoms: _374  and  _375
REMARK  147  A    between atoms: _377  and  _379
REMARK  148  A    between atoms: _379  and  _380
REMARK  149  A    between atoms: _379  and  _382
REMARK  150  A    between atoms: _382  and  _383
REMARK  151  A    between atoms: _383  and  _384
REMARK  152  A    between atoms: _389  and  _391
REMARK  153  A    between atoms: _391  and  _392
REMARK  154  A    between atoms: _391  and  _394
REMARK  155  A    between atoms: _394  and  _395
REMARK  156  A    between atoms: _400  and  _402
REMARK  157  A    between atoms: _402  and  _403
REMARK  158  A    between atoms: _405  and  _407
REMARK  159  A    between atoms: _407  and  _408
REMARK  160  A    between atoms: _407  and  _410
REMARK  161  A    between atoms: _410  and  _411
REMARK  162  A    between atoms: _413  and  _415
REMARK  163  A    between atoms: _415  and  _416
REMARK  164  A    between atoms: _415  and  _418
REMARK  165  A    between atoms: _418  and  _419
REMARK  166  A    between atoms: _421  and  _423
REMARK  167  A    between atoms: _423  and  _424
REMARK  168  A    between atoms: _423  and  _426
REMARK  169  A    between atoms: _426  and  _427
REMARK  170  A    between atoms: _432  and  _433
REMARK  171  A    between atoms: _435  and  _437
REMARK  172  A    between atoms: _437  and  _438
REMARK  173  A    between atoms: _441  and  _443
REMARK  174  A    between atoms: _443  and  _444
REMARK  175  A    between atoms: _443  and  _446
REMARK  176  A    between atoms: _446  and  _447
REMARK  177  A    between atoms: _453  and  _455
REMARK  178  A    between atoms: _455  and  _456
REMARK  179  A    between atoms: _455  and  _458
REMARK  180  A    between atoms: _458  and  _459
REMARK  181  A    between atoms: _462  and  _464
REMARK  182  A    between atoms: _464  and  _465
REMARK  183  A    between atoms: _464  and  _467
REMARK  184  A    between atoms: _467  and  _468
REMARK  185  A    between atoms: _471  and  _473
REMARK  186  A    between atoms: _473  and  _474
REMARK  187  A    between atoms: _473  and  _476
REMARK  188  A    between atoms: _476  and  _477
REMARK  189  A    between atoms: _480  and  _482
REMARK  190  A    between atoms: _482  and  _483
REMARK  191  A    between atoms: _487  and  _488
REMARK  192  A    between atoms: _493  and  _495
REMARK  193  A    between atoms: _495  and  _496
REMARK  194  A    between atoms: _495  and  _498
REMARK  195  A    between atoms: _498  and  _499
REMARK  196  A    between atoms: _504  and  _506
REMARK  197  A    between atoms: _506  and  _507
REMARK  198  A    between atoms: _506  and  _509
REMARK  199  A    between atoms: _509  and  _510
REMARK  200  A    between atoms: _516  and  _518
REMARK  201  A    between atoms: _518  and  _519
REMARK  202  A    between atoms: _518  and  _521
REMARK  203  A    between atoms: _521  and  _522
REMARK  204  A    between atoms: _522  and  _523
REMARK  205  A    between atoms: _523  and  _524
REMARK  206  A    between atoms: _524  and  _525
REMARK  207  A    between atoms: _529  and  _531
REMARK  208  A    between atoms: _531  and  _532
REMARK  209  A    between atoms: _531  and  _534
REMARK  210  A    between atoms: _534  and  _535
REMARK  211  A    between atoms: _540  and  _542
REMARK  212  A    between atoms: _542  and  _543
REMARK  213  A    between atoms: _542  and  _545
REMARK  214  A    between atoms: _545  and  _546
REMARK  215  A    between atoms: _551  and  _553
REMARK  216  A    between atoms: _553  and  _554
REMARK  217  A    between atoms: _553  and  _556
REMARK  218  A    between atoms: _556  and  _557
REMARK  219  A    between atoms: _559  and  _561
REMARK  220  A    between atoms: _561  and  _562
REMARK  221  A    between atoms: _561  and  _564
REMARK  222  A    between atoms: _564  and  _565
REMARK  223  A    between atoms: _570  and  _572
REMARK  224  A    between atoms: _572  and  _573
REMARK  225  A    between atoms: _572  and  _575
REMARK  226  A    between atoms: _575  and  _576
REMARK  227  A    between atoms: _581  and  _582
REMARK  228  A    between atoms: _584  and  _586
REMARK  229  A    between atoms: _586  and  _587
REMARK  230  A    between atoms: _586  and  _589
REMARK  231  A    between atoms: _589  and  _590
REMARK  232  A    between atoms: _593  and  _595
REMARK  233  A    between atoms: _595  and  _596
REMARK  234  A    between atoms: _598  and  _600
REMARK  235  A    between atoms: _600  and  _601
REMARK  236  A    between atoms: _600  and  _603
REMARK  237  A    between atoms: _603  and  _604
REMARK  238  A    between atoms: _609  and  _611
REMARK  239  A    between atoms: _611  and  _612
REMARK  240  A    between atoms: _611  and  _614
REMARK  241  A    between atoms: _614  and  _615
REMARK  242  A    between atoms: _617  and  _619
REMARK  243  A    between atoms: _619  and  _620
REMARK  244  A    between atoms: _619  and  _622
REMARK  245  A    between atoms: _622  and  _623
REMARK  246  A    between atoms: _626  and  _628
REMARK  247  A    between atoms: _628  and  _629
REMARK  248  A    between atoms: _628  and  _631
REMARK  249  A    between atoms: _631  and  _632
REMARK  250  A    between atoms: _634  and  _636
REMARK  251  A    between atoms: _636  and  _637
REMARK  252  A    between atoms: _636  and  _639
REMARK  253  A    between atoms: _639  and  _640
REMARK  254  A    between atoms: _643  and  _645
REMARK  255  A    between atoms: _645  and  _646
REMARK  256  A    between atoms: _645  and  _648
REMARK  257  A    between atoms: _648  and  _649
REMARK                            x       y       z     vdW  Elec       q    Type
REMARK                         _______ _______ _______ _____ _____    ______ ____
ROOT
ATOM      1  CA  TYR A   4      20.152  -3.727   5.701  0.00  0.00    +0.153 C 
ENDROOT
BRANCH   1   3
ATOM      2  C   HIS A   3      22.542  -3.289   5.461  0.00  0.00    +0.241 C 
ATOM      3  N   TYR A   4      21.438  -3.247   6.206  0.00  0.00    -0.297 N 
ATOM      4  H   TYR A   4      21.492  -2.863   7.171  0.00  0.00    +0.150 HD
ATOM      5  O   HIS A   3      22.557  -3.743   4.315  0.00  0.00    -0.273 OA
BRANCH   2   6
ATOM      6  CA  HIS A   3      23.828  -2.758   6.109  0.00  0.00    +0.155 C 
BRANCH   6   9
ATOM      7  C   SER A   2      24.928  -4.935   6.193  0.00  0.00    +0.243 C 
ATOM      8  O   SER A   2      23.972  -5.453   6.769  0.00  0.00    -0.273 OA
ATOM      9  N   HIS A   3      24.952  -3.653   5.845  0.00  0.00    -0.297 N 
ATOM     10  H   HIS A   3      25.797  -3.275   5.370  0.00  0.00    +0.150 HD
BRANCH   7  11
ATOM     11  CA  SER A   2      26.167  -5.759   5.847  0.00  0.00    +0.178 C 
BRANCH  11  13
ATOM     12  C   ASN A   1      27.228  -4.816   3.863  0.00  0.00    +0.239 C 
ATOM     13  N   SER A   2      27.206  -4.981   5.181  0.00  0.00    -0.295 N 
ATOM     14  H   SER A   2      27.953  -4.542   5.756  0.00  0.00    +0.150 HD
ATOM     15  O   ASN A   1      26.374  -5.289   3.110  0.00  0.00    -0.274 OA
BRANCH  12  16
ATOM     16  CA  ASN A   1      28.384  -3.994   3.307  0.00  0.00    +0.154 C 
BRANCH  16  17
ATOM     17  N   ASN A   1      29.395  -4.899   2.770  0.00  0.00    -0.238 NA
ATOM     18  H   ASN A   1      29.123  -5.559   2.013  0.00  0.00    +0.142 HD
ENDBRANCH  16  17
BRANCH  16  19
ATOM     19  CB  ASN A   1      27.862  -3.056   2.218  0.00  0.00    +0.111 C 
BRANCH  19  20
ATOM     20  CG  ASN A   1      28.919  -2.095   1.722  0.00  0.00    +0.221 C 
ATOM     21  ND2 ASN A   1      28.708  -0.806   1.967  0.00  0.00    -0.329 N 
ATOM     22 HD21 ASN A   1      27.849  -0.506   2.471  0.00  0.00    +0.145 HD
ATOM     23 HD22 ASN A   1      29.402  -0.097   1.655  0.00  0.00    +0.145 HD
ATOM     24  OD1 ASN A   1      29.919  -2.505   1.129  0.00  0.00    -0.275 OA
ENDBRANCH  19  20
ENDBRANCH  16  19
ENDBRANCH  12  16
ENDBRANCH  11  13
BRANCH  11  25
ATOM     25  CB  SER A   2      26.731  -6.397   7.119  0.00  0.00    +0.166 C 
BRANCH  25  26
ATOM     26  OG  SER A   2      27.232  -5.409   8.002  0.00  0.00    -0.380 OA
ATOM     27  H   SER A   2      26.500  -4.791   8.253  0.00  0.00    +0.211 HD
ENDBRANCH  25  26
ENDBRANCH  11  25
ENDBRANCH   7  11
ENDBRANCH   6   9
BRANCH   6  28
ATOM     28  CB  HIS A   3      24.175  -1.352   5.593  0.00  0.00    +0.076 C 
BRANCH  28  29
ATOM     29  CG  HIS A   3      22.987  -0.516   5.227  0.00  0.00    +0.082 A 
ATOM     30  CD2 HIS A   3      22.391   0.518   5.868  0.00  0.00    +0.115 A 
ATOM     31  NE2 HIS A   3      21.360   0.951   5.069  0.00  0.00    -0.221 NA
ATOM     32  CE1 HIS A   3      21.321   0.207   3.978  0.00  0.00    +0.199 A 
ATOM     33  ND1 HIS A   3      22.291  -0.687   4.049  0.00  0.00    -0.227 NA
ENDBRANCH  28  29
ENDBRANCH   6  28
ENDBRANCH   2   6
ENDBRANCH   1   3
BRANCH   1  34
ATOM     34  C   TYR A   4      19.495  -2.708   4.768  0.00  0.00    +0.241 C 
ATOM     35  O   TYR A   4      19.238  -1.571   5.157  0.00  0.00    -0.273 OA
ATOM     36  N   ILE A   5      19.223  -3.141   3.539  0.00  0.00    -0.297 N 
ATOM     37  H   ILE A   5      19.448  -4.128   3.301  0.00  0.00    +0.150 HD
BRANCH  36  38
ATOM     38  CA  ILE A   5      18.623  -2.297   2.507  0.00  0.00    +0.149 C 
BRANCH  38  39
ATOM     39  C   ILE A   5      17.397  -1.491   2.943  0.00  0.00    +0.241 C 
ATOM     40  N   GLY A   6      16.621  -2.032   3.877  0.00  0.00    -0.295 N 
ATOM     41  H   GLY A   6      16.866  -2.961   4.274  0.00  0.00    +0.150 HD
ATOM     42  O   ILE A   5      17.164  -0.390   2.440  0.00  0.00    -0.273 OA
BRANCH  40  43
ATOM     43  CA  GLY A   6      15.434  -1.339   4.349  0.00  0.00    +0.176 C 
BRANCH  43  44
ATOM     44  C   GLY A   6      15.713  -0.139   5.236  0.00  0.00    +0.243 C 
ATOM     45  N   HIS A   7      16.939  -0.038   5.742  0.00  0.00    -0.297 N 
ATOM     46  H   HIS A   7      17.642  -0.774   5.527  0.00  0.00    +0.150 HD
ATOM     47  O   GLY A   6      14.824   0.681   5.471  0.00  0.00    -0.273 OA
BRANCH  45  48
ATOM     48  CA  HIS A   7      17.317   1.086   6.593  0.00  0.00    +0.155 C 
BRANCH  48  49
ATOM     49  C   HIS A   7      17.774   2.242   5.713  0.00  0.00    +0.241 C 
ATOM     50  N   SER A   8      17.618   3.464   6.212  0.00  0.00    -0.296 N 
ATOM     51  H   SER A   8      17.188   3.583   7.152  0.00  0.00    +0.150 HD
ATOM     52  O   HIS A   7      18.262   2.029   4.604  0.00  0.00    -0.273 OA
BRANCH  50  53
ATOM     53  CA  SER A   8      18.040   4.639   5.462  0.00  0.00    +0.166 C 
BRANCH  53  54
ATOM     54  CB  SER A   8      18.223   5.815   6.403  0.00  0.00    +0.229 C 
ATOM     55  OG  SER A   8      17.637   5.861   7.487  0.00  0.00    -0.286 OA
ENDBRANCH  53  54
BRANCH  53  56
ATOM     56  C   SER A   8      17.003   5.009   4.399  0.00  0.00    +0.165 C 
BRANCH  56  57
ATOM     57  O   SER A   8      15.904   5.693   4.976  0.00  0.00    -0.380 OA
ATOM     58  H   SER A   8      15.473   5.112   5.652  0.00  0.00    +0.211 HD
ENDBRANCH  56  57
ENDBRANCH  53  56
ENDBRANCH  50  53
ENDBRANCH  48  49
BRANCH  48  59
ATOM     59  CB  HIS A   7      18.469   0.711   7.530  0.00  0.00    +0.076 C 
BRANCH  59  60
ATOM     60  CG  HIS A   7      18.140  -0.379   8.501  0.00  0.00    +0.082 A 
ATOM     61  ND1 HIS A   7      17.004  -0.366   9.281  0.00  0.00    -0.227 NA
ATOM     62  CE1 HIS A   7      16.999  -1.428  10.067  0.00  0.00    +0.199 A 
ATOM     63  NE2 HIS A   7      18.091  -2.130   9.824  0.00  0.00    -0.221 NA
ATOM     64  CD2 HIS A   7      18.822  -1.497   8.849  0.00  0.00    +0.115 A 
ENDBRANCH  59  60
ENDBRANCH  48  59
ENDBRANCH  45  48
ENDBRANCH  43  44
ENDBRANCH  40  43
ENDBRANCH  38  39
BRANCH  38  65
ATOM     65  CB  ILE A   5      18.257  -3.145   1.259  0.00  0.00    +0.027 C 
ATOM     66  CG2 ILE A   5      17.254  -4.230   1.633  0.00  0.00    +0.002 C 
BRANCH  65  67
ATOM     67  CG1 ILE A   5      17.697  -2.243   0.157  0.00  0.00    +0.002 C 
ATOM     68  CD1 ILE A   5      17.403  -2.975  -1.139  0.00  0.00    +0.000 C 
ENDBRANCH  65  67
ENDBRANCH  38  65
ENDBRANCH  36  38
ENDBRANCH   1  34
BRANCH   1  69
ATOM     69  CB  TYR A   4      19.213  -4.057   6.866  0.00  0.00    +0.055 C 
BRANCH  69  70
ATOM     70  CG  TYR A   4      17.828  -4.483   6.430  0.00  0.00    -0.020 A 
ATOM     71  CD2 TYR A   4      16.738  -3.623   6.564  0.00  0.00    -0.001 A 
ATOM     72  CE2 TYR A   4      15.468  -3.996   6.123  0.00  0.00    +0.036 A 
ATOM     73  CZ  TYR A   4      15.281  -5.241   5.539  0.00  0.00    +0.134 A 
ATOM     74  CE1 TYR A   4      16.349  -6.114   5.399  0.00  0.00    +0.036 A 
ATOM     75  CD1 TYR A   4      17.614  -5.732   5.845  0.00  0.00    -0.001 A 
BRANCH  73  76
ATOM     76  OH  TYR A   4      14.033  -5.602   5.083  0.00  0.00    -0.506 OA
ATOM     77  HH  TYR A   4      13.393  -4.868   5.261  0.00  0.00    +0.292 HD
ENDBRANCH  73  76
ENDBRANCH  69  70
ENDBRANCH   1  69
TORSDOF 31
REMARK  Name = ../refined-set-2016/1ro7/1ro7_pocket.pdb
REMARK  257 active torsions:
REMARK  status: ('A' for Active; 'I' for Inactive)
REMARK    1  A    between atoms: _1  and  _3
REMARK    2  A    between atoms: _3  and  _4
REMARK    3  A    between atoms: _3  and  _6
REMARK    4  A    between atoms: _6  and  _7
REMARK    5  A    between atoms: _10  and  _12
REMARK    6  A    between atoms: _12  and  _13
REMARK    7  A    between atoms: _16  and  _18
REMARK    8  A    between atoms: _18  and  _19
REMARK    9  A    between atoms: _21  and  _23
REMARK   10  A    between atoms: _23  and  _24
REMARK   11  A    between atoms: _23  and  _26
REMARK   12  A    between atoms: _26  and  _27
REMARK   13  A    between atoms: _32  and  _34
REMARK   14  A    between atoms: _34  and  _35
REMARK   15  A    between atoms: _38  and  _39
REMARK   16  A    between atoms: _44  and  _46
REMARK   17  A    between atoms: _46  and  _47
REMARK   18  A    between atoms: _46  and  _49
REMARK   19  A    between atoms: _49  and  _50
REMARK   20  A    between atoms: _52  and  _54
REMARK   21  A    between atoms: _54  and  _55
REMARK   22  A    between atoms: _54  and  _57
REMARK   23  A    between atoms: _57  and  _58
REMARK   24  A    between atoms: _61  and  _63
REMARK   25  A    between atoms: _63  and  _64
REMARK   26  A    between atoms: _63  and  _66
REMARK   27  A    between atoms: _66  and  _67
REMARK   28  A    between atoms: _67  and  _68
REMARK   29  A    between atoms: _68  and  _69
REMARK   30  A    between atoms: _78  and  _80
REMARK   31  A    between atoms: _80  and  _81
REMARK   32  A    between atoms: _80  and  _83
REMARK   33  A    between atoms: _85  and  _87
REMARK   34  A    between atoms: _87  and  _88
REMARK   35  A    between atoms: _87  and  _90
REMARK   36  A    between atoms: _90  and  _91
REMARK   37  A    between atoms: _96  and  _98
REMARK   38  A    between atoms: _98  and  _99
REMARK   39  A    between atoms: _98  and  _101
REMARK   40  A    between atoms: _101  and  _102
REMARK   41  A    between atoms: _102  and  _103
REMARK   42  A    between atoms: _108  and  _110
REMARK   43  A    between atoms: _110  and  _111
REMARK   44  A    between atoms: _110  and  _113
REMARK   45  A    between atoms: _113  and  _114
REMARK   46  A    between atoms: _120  and  _122
REMARK   47  A    between atoms: _122  and  _123
REMARK   48  A    between atoms: _122  and  _125
REMARK   49  A    between atoms: _125  and  _126
REMARK   50  A    between atoms: _131  and  _132
REMARK   51  A    between atoms: _134  and  _136
REMARK   52  A    between atoms: _136  and  _137
REMARK   53  A    between atoms: _136  and  _139
REMARK   54  A    between atoms: _139  and  _140
REMARK   55  A    between atoms: _146  and  _148
REMARK   56  A    between atoms: _148  and  _149
REMARK   57  A    between atoms: _148  and  _151
REMARK   58  A    between atoms: _151  and  _152
REMARK   59  A    between atoms: _157  and  _158
REMARK   60  A    between atoms: _160  and  _162
REMARK   61  A    between atoms: _162  and  _163
REMARK   62  A    between atoms: _162  and  _165
REMARK   63  A    between atoms: _165  and  _166
REMARK   64  A    between atoms: _172  and  _173
REMARK   65  A    between atoms: _178  and  _180
REMARK   66  A    between atoms: _180  and  _181
REMARK   67  A    between atoms: _180  and  _183
REMARK   68  A    between atoms: _183  and  _184
REMARK   69  A    between atoms: _186  and  _188
REMARK   70  A    between atoms: _188  and  _189
REMARK   71  A    between atoms: _188  and  _191
REMARK   72  A    between atoms: _191  and  _192
REMARK   73  A    between atoms: _195  and  _197
REMARK   74  A    between atoms: _197  and  _198
REMARK   75  A    between atoms: _197  and  _200
REMARK   76  A    between atoms: _200  and  _201
REMARK   77  A    between atoms: _207  and  _209
REMARK   78  A    between atoms: _209  and  _210
REMARK   79  A    between atoms: _209  and  _212
REMARK   80  A    between atoms: _212  and  _213
REMARK   81  A    between atoms: _213  and  _214
REMARK   82  A    between atoms: _219  and  _221
REMARK   83  A    between atoms: _221  and  _222
REMARK   84  A    between atoms: _221  and  _224
REMARK   85  A    between atoms: _224  and  _225
REMARK   86  A    between atoms: _227  and  _229
REMARK   87  A    between atoms: _229  and  _230
REMARK   88  A    between atoms: _229  and  _232
REMARK   89  A    between atoms: _232  and  _233
REMARK   90  A    between atoms: _238  and  _239
REMARK   91  A    between atoms: _241  and  _243
REMARK   92  A    between atoms: _243  and  _244
REMARK   93  A    between atoms: _243  and  _246
REMARK   94  A    between atoms: _246  and  _247
REMARK   95  A    between atoms: _247  and  _248
REMARK   96  A    between atoms: _248  and  _249
REMARK   97  A    between atoms: _258  and  _260
REMARK   98  A    between atoms: _260  and  _261
REMARK   99  A    between atoms: _260  and  _263
REMARK  100  A    between atoms: _263  and  _264
REMARK  101  A    between atoms: _267  and  _269
REMARK  102  A    between atoms: _269  and  _270
REMARK  103  A    between atoms: _269  and  _272
REMARK  104  A    between atoms: _272  and  _273
REMARK  105  A    between atoms: _276  and  _278
REMARK  106  A    between atoms: _278  and  _279
REMARK  107  A    between atoms: _278  and  _281
REMARK  108  A    between atoms: _281  and  _282
REMARK  109  A    between atoms: _284  and  _286
REMARK  110  A    between atoms: _286  and  _287
REMARK  111  A    between atoms: _289  and  _291
REMARK  112  A    between atoms: _291  and  _292
REMARK  113  A    between atoms: _291  and  _294
REMARK  114  A    between atoms: _297  and  _299
REMARK  115  A    between atoms: _299  and  _300
REMARK  116  A    between atoms: _299  and  _302
REMARK  117  A    between atoms: _302  and  _303
REMARK  118  A    between atoms: _308  and  _309
REMARK  119  A    between atoms: _311  and  _313
REMARK  120  A    between atoms: _313  and  _314
REMARK  121  A    between atoms: _313  and  _316
REMARK  122  A    between atoms: _316  and  _317
REMARK  123  A    between atoms: _317  and  _318
REMARK  124  A    between atoms: _320  and  _322
REMARK  125  A    between atoms: _322  and  _323
REMARK  126  A    between atoms: _322  and  _325
REMARK  127  A    between atoms: _325  and  _326
REMARK  128  A    between atoms: _328  and  _330
REMARK  129  A    between atoms: _330  and  _331
REMARK  130  A    between atoms: _333  and  _335
REMARK  131  A    between atoms: _335  and  _336
REMARK  132  A    between atoms: _335  and  _338
REMARK  133  A    between atoms: _338  and  _339
REMARK  134  A    between atoms: _342  and  _344
REMARK  135  A    between atoms: _344  and  _345
REMARK  136  A    between atoms: _344  and  _347
REMARK  137  A    between atoms: _347  and  _348
REMARK  138  A    between atoms: _351  and  _353
REMARK  139  A    between atoms: _353  and  _354
REMARK  140  A    between atoms: _353  and  _356
REMARK  141  A    between atoms: _356  and  _357
REMARK  142  A    between atoms: _363  and  _365
REMARK  143  A    between atoms: _365  and  _366
REMARK  144  A    between atoms: _365  and  _368
REMARK  145  A    between atoms: _368  and  _369
REMARK  146  A    between atoms: _374  and  _375
REMARK  147  A    between atoms: _377  and  _379
REMARK  148  A    between atoms: _379  and  _380
REMARK  149  A    between atoms: _379  and  _382
REMARK  150  A    between atoms: _382  and  _383
REMARK  151  A    between atoms: _383  and  _384
REMARK  152  A    between atoms: _389  and  _391
REMARK  153  A    between atoms: _391  and  _392
REMARK  154  A    between atoms: _391  and  _394
REMARK  155  A    between atoms: _394  and  _395
REMARK  156  A    between atoms: _400  and  _402
REMARK  157  A    between atoms: _402  and  _403
REMARK  158  A    between atoms: _405  and  _407
REMARK  159  A    between atoms: _407  and  _408
REMARK  160  A    between atoms: _407  and  _410
REMARK  161  A    between atoms: _410  and  _411
REMARK  162  A    between atoms: _413  and  _415
REMARK  163  A    between atoms: _415  and  _416
REMARK  164  A    between atoms: _415  and  _418
REMARK  165  A    between atoms: _418  and  _419
REMARK  166  A    between atoms: _421  and  _423
REMARK  167  A    between atoms: _423  and  _424
REMARK  168  A    between atoms: _423  and  _426
REMARK  169  A    between atoms: _426  and  _427
REMARK  170  A    between atoms: _432  and  _433
REMARK  171  A    between atoms: _435  and  _437
REMARK  172  A    between atoms: _437  and  _438
REMARK  173  A    between atoms: _441  and  _443
REMARK  174  A    between atoms: _443  and  _444
REMARK  175  A    between atoms: _443  and  _446
REMARK  176  A    between atoms: _446  and  _447
REMARK  177  A    between atoms: _453  and  _455
REMARK  178  A    between atoms: _455  and  _456
REMARK  179  A    between atoms: _455  and  _458
REMARK  180  A    between atoms: _458  and  _459
REMARK  181  A    between atoms: _462  and  _464
REMARK  182  A    between atoms: _464  and  _465
REMARK  183  A    between atoms: _464  and  _467
REMARK  184  A    between atoms: _467  and  _468
REMARK  185  A    between atoms: _471  and  _473
REMARK  186  A    between atoms: _473  and  _474
REMARK  187  A    between atoms: _473  and  _476
REMARK  188  A    between atoms: _476  and  _477
REMARK  189  A    between atoms: _480  and  _482
REMARK  190  A    between atoms: _482  and  _483
REMARK  191  A    between atoms: _487  and  _488
REMARK  192  A    between atoms: _493  and  _495
REMARK  193  A    between atoms: _495  and  _496
REMARK  194  A    between atoms: _495  and  _498
REMARK  195  A    between atoms: _498  and  _499
REMARK  196  A    between atoms: _504  and  _506
REMARK  197  A    between atoms: _506  and  _507
REMARK  198  A    between atoms: _506  and  _509
REMARK  199  A    between atoms: _509  and  _510
REMARK  200  A    between atoms: _516  and  _518
REMARK  201  A    between atoms: _518  and  _519
REMARK  202  A    between atoms: _518  and  _521
REMARK  203  A    between atoms: _521  and  _522
REMARK  204  A    between atoms: _522  and  _523
REMARK  205  A    between atoms: _523  and  _524
REMARK  206  A    between atoms: _524  and  _525
REMARK  207  A    between atoms: _529  and  _531
REMARK  208  A    between atoms: _531  and  _532
REMARK  209  A    between atoms: _531  and  _534
REMARK  210  A    between atoms: _534  and  _535
REMARK  211  A    between atoms: _540  and  _542
REMARK  212  A    between atoms: _542  and  _543
REMARK  213  A    between atoms: _542  and  _545
REMARK  214  A    between atoms: _545  and  _546
REMARK  215  A    between atoms: _551  and  _553
REMARK  216  A    between atoms: _553  and  _554
REMARK  217  A    between atoms: _553  and  _556
REMARK  218  A    between atoms: _556  and  _557
REMARK  219  A    between atoms: _559  and  _561
REMARK  220  A    between atoms: _561  and  _562
REMARK  221  A    between atoms: _561  and  _564
REMARK  222  A    between atoms: _564  and  _565
REMARK  223  A    between atoms: _570  and  _572
REMARK  224  A    between atoms: _572  and  _573
REMARK  225  A    between atoms: _572  and  _575
REMARK  226  A    between atoms: _575  and  _576
REMARK  227  A    between atoms: _581  and  _582
REMARK  228  A    between atoms: _584  and  _586
REMARK  229  A    between atoms: _586  and  _587
REMARK  230  A    between atoms: _586  and  _589
REMARK  231  A    between atoms: _589  and  _590
REMARK  232  A    between atoms: _593  and  _595
REMARK  233  A    between atoms: _595  and  _596
REMARK  234  A    between atoms: _598  and  _600
REMARK  235  A    between atoms: _600  and  _601
REMARK  236  A    between atoms: _600  and  _603
REMARK  237  A    between atoms: _603  and  _604
REMARK  238  A    between atoms: _609  and  _611
REMARK  239  A    between atoms: _611  and  _612
REMARK  240  A    between atoms: _611  and  _614
REMARK  241  A    between atoms: _614  and  _615
REMARK  242  A    between atoms: _617  and  _619
REMARK  243  A    between atoms: _619  and  _620
REMARK  244  A    between atoms: _619  and  _622
REMARK  245  A    between atoms: _622  and  _623
REMARK  246  A    between atoms: _626  and  _628
REMARK  247  A    between atoms: _628  and  _629
REMARK  248  A    between atoms: _628  and  _631
REMARK  249  A    between atoms: _631  and  _632
REMARK  250  A    between atoms: _634  and  _636
REMARK  251  A    between atoms: _636  and  _637
REMARK  252  A    between atoms: _636  and  _639
REMARK  253  A    between atoms: _639  and  _640
REMARK  254  A    between atoms: _643  and  _645
REMARK  255  A    between atoms: _645  and  _646
REMARK  256  A    between atoms: _645  and  _648
REMARK  257  A    between atoms: _648  and  _649
REMARK                            x       y       z     vdW  Elec       q    Type
REMARK                         _______ _______ _______ _____ _____    ______ ____
ROOT
ATOM      1  CA  ASP A   1      15.579   7.040  10.784  0.00  0.00    +0.144 C 
ENDROOT
BRANCH   1   2
ATOM      2  N   ASP A   1      15.303   6.824   9.370  0.00  0.00    -0.239 NA
ATOM      3  H   ASP A   1      16.074   6.560   8.724  0.00  0.00    +0.142 HD
ENDBRANCH   1   2
BRANCH   1   4
ATOM      4  C   ASP A   1      15.334   8.492  11.190  0.00  0.00    +0.225 C 
ATOM      5  O   ASP A   1      14.688   8.756  12.203  0.00  0.00    -0.287 OA
ENDBRANCH   1   4
BRANCH   1   6
ATOM      6  CB  ASP A   1      17.014   6.628  11.127  0.00  0.00    +0.139 C 
BRANCH   6   7
ATOM      7  CG  ASP A   1      17.148   5.132  11.399  0.00  0.00    +0.367 C 
ATOM      8  OD2 ASP A   1      18.235   4.710  11.840  0.00  0.00    -0.246 OA
ATOM      9  OD1 ASP A   1      16.177   4.378  11.177  0.00  0.00    -0.246 OA
ENDBRANCH   6   7
ENDBRANCH   1   6
TORSDOF 4
REMARK  Name = ../refined-set-2016/1ro7/1ro7_pocket.pdb
REMARK  257 active torsions:
REMARK  status: ('A' for Active; 'I' for Inactive)
REMARK    1  A    between atoms: _1  and  _3
REMARK    2  A    between atoms: _3  and  _4
REMARK    3  A    between atoms: _3  and  _6
REMARK    4  A    between atoms: _6  and  _7
REMARK    5  A    between atoms: _10  and  _12
REMARK    6  A    between atoms: _12  and  _13
REMARK    7  A    between atoms: _16  and  _18
REMARK    8  A    between atoms: _18  and  _19
REMARK    9  A    between atoms: _21  and  _23
REMARK   10  A    between atoms: _23  and  _24
REMARK   11  A    between atoms: _23  and  _26
REMARK   12  A    between atoms: _26  and  _27
REMARK   13  A    between atoms: _32  and  _34
REMARK   14  A    between atoms: _34  and  _35
REMARK   15  A    between atoms: _38  and  _39
REMARK   16  A    between atoms: _44  and  _46
REMARK   17  A    between atoms: _46  and  _47
REMARK   18  A    between atoms: _46  and  _49
REMARK   19  A    between atoms: _49  and  _50
REMARK   20  A    between atoms: _52  and  _54
REMARK   21  A    between atoms: _54  and  _55
REMARK   22  A    between atoms: _54  and  _57
REMARK   23  A    between atoms: _57  and  _58
REMARK   24  A    between atoms: _61  and  _63
REMARK   25  A    between atoms: _63  and  _64
REMARK   26  A    between atoms: _63  and  _66
REMARK   27  A    between atoms: _66  and  _67
REMARK   28  A    between atoms: _67  and  _68
REMARK   29  A    between atoms: _68  and  _69
REMARK   30  A    between atoms: _78  and  _80
REMARK   31  A    between atoms: _80  and  _81
REMARK   32  A    between atoms: _80  and  _83
REMARK   33  A    between atoms: _85  and  _87
REMARK   34  A    between atoms: _87  and  _88
REMARK   35  A    between atoms: _87  and  _90
REMARK   36  A    between atoms: _90  and  _91
REMARK   37  A    between atoms: _96  and  _98
REMARK   38  A    between atoms: _98  and  _99
REMARK   39  A    between atoms: _98  and  _101
REMARK   40  A    between atoms: _101  and  _102
REMARK   41  A    between atoms: _102  and  _103
REMARK   42  A    between atoms: _108  and  _110
REMARK   43  A    between atoms: _110  and  _111
REMARK   44  A    between atoms: _110  and  _113
REMARK   45  A    between atoms: _113  and  _114
REMARK   46  A    between atoms: _120  and  _122
REMARK   47  A    between atoms: _122  and  _123
REMARK   48  A    between atoms: _122  and  _125
REMARK   49  A    between atoms: _125  and  _126
REMARK   50  A    between atoms: _131  and  _132
REMARK   51  A    between atoms: _134  and  _136
REMARK   52  A    between atoms: _136  and  _137
REMARK   53  A    between atoms: _136  and  _139
REMARK   54  A    between atoms: _139  and  _140
REMARK   55  A    between atoms: _146  and  _148
REMARK   56  A    between atoms: _148  and  _149
REMARK   57  A    between atoms: _148  and  _151
REMARK   58  A    between atoms: _151  and  _152
REMARK   59  A    between atoms: _157  and  _158
REMARK   60  A    between atoms: _160  and  _162
REMARK   61  A    between atoms: _162  and  _163
REMARK   62  A    between atoms: _162  and  _165
REMARK   63  A    between atoms: _165  and  _166
REMARK   64  A    between atoms: _172  and  _173
REMARK   65  A    between atoms: _178  and  _180
REMARK   66  A    between atoms: _180  and  _181
REMARK   67  A    between atoms: _180  and  _183
REMARK   68  A    between atoms: _183  and  _184
REMARK   69  A    between atoms: _186  and  _188
REMARK   70  A    between atoms: _188  and  _189
REMARK   71  A    between atoms: _188  and  _191
REMARK   72  A    between atoms: _191  and  _192
REMARK   73  A    between atoms: _195  and  _197
REMARK   74  A    between atoms: _197  and  _198
REMARK   75  A    between atoms: _197  and  _200
REMARK   76  A    between atoms: _200  and  _201
REMARK   77  A    between atoms: _207  and  _209
REMARK   78  A    between atoms: _209  and  _210
REMARK   79  A    between atoms: _209  and  _212
REMARK   80  A    between atoms: _212  and  _213
REMARK   81  A    between atoms: _213  and  _214
REMARK   82  A    between atoms: _219  and  _221
REMARK   83  A    between atoms: _221  and  _222
REMARK   84  A    between atoms: _221  and  _224
REMARK   85  A    between atoms: _224  and  _225
REMARK   86  A    between atoms: _227  and  _229
REMARK   87  A    between atoms: _229  and  _230
REMARK   88  A    between atoms: _229  and  _232
REMARK   89  A    between atoms: _232  and  _233
REMARK   90  A    between atoms: _238  and  _239
REMARK   91  A    between atoms: _241  and  _243
REMARK   92  A    between atoms: _243  and  _244
REMARK   93  A    between atoms: _243  and  _246
REMARK   94  A    between atoms: _246  and  _247
REMARK   95  A    between atoms: _247  and  _248
REMARK   96  A    between atoms: _248  and  _249
REMARK   97  A    between atoms: _258  and  _260
REMARK   98  A    between atoms: _260  and  _261
REMARK   99  A    between atoms: _260  and  _263
REMARK  100  A    between atoms: _263  and  _264
REMARK  101  A    between atoms: _267  and  _269
REMARK  102  A    between atoms: _269  and  _270
REMARK  103  A    between atoms: _269  and  _272
REMARK  104  A    between atoms: _272  and  _273
REMARK  105  A    between atoms: _276  and  _278
REMARK  106  A    between atoms: _278  and  _279
REMARK  107  A    between atoms: _278  and  _281
REMARK  108  A    between atoms: _281  and  _282
REMARK  109  A    between atoms: _284  and  _286
REMARK  110  A    between atoms: _286  and  _287
REMARK  111  A    between atoms: _289  and  _291
REMARK  112  A    between atoms: _291  and  _292
REMARK  113  A    between atoms: _291  and  _294
REMARK  114  A    between atoms: _297  and  _299
REMARK  115  A    between atoms: _299  and  _300
REMARK  116  A    between atoms: _299  and  _302
REMARK  117  A    between atoms: _302  and  _303
REMARK  118  A    between atoms: _308  and  _309
REMARK  119  A    between atoms: _311  and  _313
REMARK  120  A    between atoms: _313  and  _314
REMARK  121  A    between atoms: _313  and  _316
REMARK  122  A    between atoms: _316  and  _317
REMARK  123  A    between atoms: _317  and  _318
REMARK  124  A    between atoms: _320  and  _322
REMARK  125  A    between atoms: _322  and  _323
REMARK  126  A    between atoms: _322  and  _325
REMARK  127  A    between atoms: _325  and  _326
REMARK  128  A    between atoms: _328  and  _330
REMARK  129  A    between atoms: _330  and  _331
REMARK  130  A    between atoms: _333  and  _335
REMARK  131  A    between atoms: _335  and  _336
REMARK  132  A    between atoms: _335  and  _338
REMARK  133  A    between atoms: _338  and  _339
REMARK  134  A    between atoms: _342  and  _344
REMARK  135  A    between atoms: _344  and  _345
REMARK  136  A    between atoms: _344  and  _347
REMARK  137  A    between atoms: _347  and  _348
REMARK  138  A    between atoms: _351  and  _353
REMARK  139  A    between atoms: _353  and  _354
REMARK  140  A    between atoms: _353  and  _356
REMARK  141  A    between atoms: _356  and  _357
REMARK  142  A    between atoms: _363  and  _365
REMARK  143  A    between atoms: _365  and  _366
REMARK  144  A    between atoms: _365  and  _368
REMARK  145  A    between atoms: _368  and  _369
REMARK  146  A    between atoms: _374  and  _375
REMARK  147  A    between atoms: _377  and  _379
REMARK  148  A    between atoms: _379  and  _380
REMARK  149  A    between atoms: _379  and  _382
REMARK  150  A    between atoms: _382  and  _383
REMARK  151  A    between atoms: _383  and  _384
REMARK  152  A    between atoms: _389  and  _391
REMARK  153  A    between atoms: _391  and  _392
REMARK  154  A    between atoms: _391  and  _394
REMARK  155  A    between atoms: _394  and  _395
REMARK  156  A    between atoms: _400  and  _402
REMARK  157  A    between atoms: _402  and  _403
REMARK  158  A    between atoms: _405  and  _407
REMARK  159  A    between atoms: _407  and  _408
REMARK  160  A    between atoms: _407  and  _410
REMARK  161  A    between atoms: _410  and  _411
REMARK  162  A    between atoms: _413  and  _415
REMARK  163  A    between atoms: _415  and  _416
REMARK  164  A    between atoms: _415  and  _418
REMARK  165  A    between atoms: _418  and  _419
REMARK  166  A    between atoms: _421  and  _423
REMARK  167  A    between atoms: _423  and  _424
REMARK  168  A    between atoms: _423  and  _426
REMARK  169  A    between atoms: _426  and  _427
REMARK  170  A    between atoms: _432  and  _433
REMARK  171  A    between atoms: _435  and  _437
REMARK  172  A    between atoms: _437  and  _438
REMARK  173  A    between atoms: _441  and  _443
REMARK  174  A    between atoms: _443  and  _444
REMARK  175  A    between atoms: _443  and  _446
REMARK  176  A    between atoms: _446  and  _447
REMARK  177  A    between atoms: _453  and  _455
REMARK  178  A    between atoms: _455  and  _456
REMARK  179  A    between atoms: _455  and  _458
REMARK  180  A    between atoms: _458  and  _459
REMARK  181  A    between atoms: _462  and  _464
REMARK  182  A    between atoms: _464  and  _465
REMARK  183  A    between atoms: _464  and  _467
REMARK  184  A    between atoms: _467  and  _468
REMARK  185  A    between atoms: _471  and  _473
REMARK  186  A    between atoms: _473  and  _474
REMARK  187  A    between atoms: _473  and  _476
REMARK  188  A    between atoms: _476  and  _477
REMARK  189  A    between atoms: _480  and  _482
REMARK  190  A    between atoms: _482  and  _483
REMARK  191  A    between atoms: _487  and  _488
REMARK  192  A    between atoms: _493  and  _495
REMARK  193  A    between atoms: _495  and  _496
REMARK  194  A    between atoms: _495  and  _498
REMARK  195  A    between atoms: _498  and  _499
REMARK  196  A    between atoms: _504  and  _506
REMARK  197  A    between atoms: _506  and  _507
REMARK  198  A    between atoms: _506  and  _509
REMARK  199  A    between atoms: _509  and  _510
REMARK  200  A    between atoms: _516  and  _518
REMARK  201  A    between atoms: _518  and  _519
REMARK  202  A    between atoms: _518  and  _521
REMARK  203  A    between atoms: _521  and  _522
REMARK  204  A    between atoms: _522  and  _523
REMARK  205  A    between atoms: _523  and  _524
REMARK  206  A    between atoms: _524  and  _525
REMARK  207  A    between atoms: _529  and  _531
REMARK  208  A    between atoms: _531  and  _532
REMARK  209  A    between atoms: _531  and  _534
REMARK  210  A    between atoms: _534  and  _535
REMARK  211  A    between atoms: _540  and  _542
REMARK  212  A    between atoms: _542  and  _543
REMARK  213  A    between atoms: _542  and  _545
REMARK  214  A    between atoms: _545  and  _546
REMARK  215  A    between atoms: _551  and  _553
REMARK  216  A    between atoms: _553  and  _554
REMARK  217  A    between atoms: _553  and  _556
REMARK  218  A    between atoms: _556  and  _557
REMARK  219  A    between atoms: _559  and  _561
REMARK  220  A    between atoms: _561  and  _562
REMARK  221  A    between atoms: _561  and  _564
REMARK  222  A    between atoms: _564  and  _565
REMARK  223  A    between atoms: _570  and  _572
REMARK  224  A    between atoms: _572  and  _573
REMARK  225  A    between atoms: _572  and  _575
REMARK  226  A    between atoms: _575  and  _576
REMARK  227  A    between atoms: _581  and  _582
REMARK  228  A    between atoms: _584  and  _586
REMARK  229  A    between atoms: _586  and  _587
REMARK  230  A    between atoms: _586  and  _589
REMARK  231  A    between atoms: _589  and  _590
REMARK  232  A    between atoms: _593  and  _595
REMARK  233  A    between atoms: _595  and  _596
REMARK  234  A    between atoms: _598  and  _600
REMARK  235  A    between atoms: _600  and  _601
REMARK  236  A    between atoms: _600  and  _603
REMARK  237  A    between atoms: _603  and  _604
REMARK  238  A    between atoms: _609  and  _611
REMARK  239  A    between atoms: _611  and  _612
REMARK  240  A    between atoms: _611  and  _614
REMARK  241  A    between atoms: _614  and  _615
REMARK  242  A    between atoms: _617  and  _619
REMARK  243  A    between atoms: _619  and  _620
REMARK  244  A    between atoms: _619  and  _622
REMARK  245  A    between atoms: _622  and  _623
REMARK  246  A    between atoms: _626  and  _628
REMARK  247  A    between atoms: _628  and  _629
REMARK  248  A    between atoms: _628  and  _631
REMARK  249  A    between atoms: _631  and  _632
REMARK  250  A    between atoms: _634  and  _636
REMARK  251  A    between atoms: _636  and  _637
REMARK  252  A    between atoms: _636  and  _639
REMARK  253  A    between atoms: _639  and  _640
REMARK  254  A    between atoms: _643  and  _645
REMARK  255  A    between atoms: _645  and  _646
REMARK  256  A    between atoms: _645  and  _648
REMARK  257  A    between atoms: _648  and  _649
REMARK                            x       y       z     vdW  Elec       q    Type
REMARK                         _______ _______ _______ _____ _____    ______ ____
ROOT
ATOM      1  CA  SER A   1      28.492  12.788  13.350  0.00  0.00    +0.163 C 
ENDROOT
BRANCH   1   2
ATOM      2  N   SER A   1      29.347  13.787  13.986  0.00  0.00    -0.237 NA
ATOM      3  H   SER A   1      29.122  14.114  14.947  0.00  0.00    +0.142 HD
ENDBRANCH   1   2
BRANCH   1   4
ATOM      4  C   SER A   1      27.535  13.408  12.343  0.00  0.00    +0.227 C 
ATOM      5  O   SER A   1      27.149  14.570  12.466  0.00  0.00    -0.287 OA
ENDBRANCH   1   4
BRANCH   1   6
ATOM      6  CB  SER A   1      27.678  12.026  14.397  0.00  0.00    +0.162 C 
BRANCH   6   7
ATOM      7  OG  SER A   1      26.775  11.126  13.773  0.00  0.00    -0.380 OA
ATOM      8  H   SER A   1      27.284  10.476  13.227  0.00  0.00    +0.211 HD
ENDBRANCH   6   7
ENDBRANCH   1   6
TORSDOF 4
REMARK  Name = ../refined-set-2016/1ro7/1ro7_pocket.pdb
REMARK  257 active torsions:
REMARK  status: ('A' for Active; 'I' for Inactive)
REMARK    1  A    between atoms: _1  and  _3
REMARK    2  A    between atoms: _3  and  _4
REMARK    3  A    between atoms: _3  and  _6
REMARK    4  A    between atoms: _6  and  _7
REMARK    5  A    between atoms: _10  and  _12
REMARK    6  A    between atoms: _12  and  _13
REMARK    7  A    between atoms: _16  and  _18
REMARK    8  A    between atoms: _18  and  _19
REMARK    9  A    between atoms: _21  and  _23
REMARK   10  A    between atoms: _23  and  _24
REMARK   11  A    between atoms: _23  and  _26
REMARK   12  A    between atoms: _26  and  _27
REMARK   13  A    between atoms: _32  and  _34
REMARK   14  A    between atoms: _34  and  _35
REMARK   15  A    between atoms: _38  and  _39
REMARK   16  A    between atoms: _44  and  _46
REMARK   17  A    between atoms: _46  and  _47
REMARK   18  A    between atoms: _46  and  _49
REMARK   19  A    between atoms: _49  and  _50
REMARK   20  A    between atoms: _52  and  _54
REMARK   21  A    between atoms: _54  and  _55
REMARK   22  A    between atoms: _54  and  _57
REMARK   23  A    between atoms: _57  and  _58
REMARK   24  A    between atoms: _61  and  _63
REMARK   25  A    between atoms: _63  and  _64
REMARK   26  A    between atoms: _63  and  _66
REMARK   27  A    between atoms: _66  and  _67
REMARK   28  A    between atoms: _67  and  _68
REMARK   29  A    between atoms: _68  and  _69
REMARK   30  A    between atoms: _78  and  _80
REMARK   31  A    between atoms: _80  and  _81
REMARK   32  A    between atoms: _80  and  _83
REMARK   33  A    between atoms: _85  and  _87
REMARK   34  A    between atoms: _87  and  _88
REMARK   35  A    between atoms: _87  and  _90
REMARK   36  A    between atoms: _90  and  _91
REMARK   37  A    between atoms: _96  and  _98
REMARK   38  A    between atoms: _98  and  _99
REMARK   39  A    between atoms: _98  and  _101
REMARK   40  A    between atoms: _101  and  _102
REMARK   41  A    between atoms: _102  and  _103
REMARK   42  A    between atoms: _108  and  _110
REMARK   43  A    between atoms: _110  and  _111
REMARK   44  A    between atoms: _110  and  _113
REMARK   45  A    between atoms: _113  and  _114
REMARK   46  A    between atoms: _120  and  _122
REMARK   47  A    between atoms: _122  and  _123
REMARK   48  A    between atoms: _122  and  _125
REMARK   49  A    between atoms: _125  and  _126
REMARK   50  A    between atoms: _131  and  _132
REMARK   51  A    between atoms: _134  and  _136
REMARK   52  A    between atoms: _136  and  _137
REMARK   53  A    between atoms: _136  and  _139
REMARK   54  A    between atoms: _139  and  _140
REMARK   55  A    between atoms: _146  and  _148
REMARK   56  A    between atoms: _148  and  _149
REMARK   57  A    between atoms: _148  and  _151
REMARK   58  A    between atoms: _151  and  _152
REMARK   59  A    between atoms: _157  and  _158
REMARK   60  A    between atoms: _160  and  _162
REMARK   61  A    between atoms: _162  and  _163
REMARK   62  A    between atoms: _162  and  _165
REMARK   63  A    between atoms: _165  and  _166
REMARK   64  A    between atoms: _172  and  _173
REMARK   65  A    between atoms: _178  and  _180
REMARK   66  A    between atoms: _180  and  _181
REMARK   67  A    between atoms: _180  and  _183
REMARK   68  A    between atoms: _183  and  _184
REMARK   69  A    between atoms: _186  and  _188
REMARK   70  A    between atoms: _188  and  _189
REMARK   71  A    between atoms: _188  and  _191
REMARK   72  A    between atoms: _191  and  _192
REMARK   73  A    between atoms: _195  and  _197
REMARK   74  A    between atoms: _197  and  _198
REMARK   75  A    between atoms: _197  and  _200
REMARK   76  A    between atoms: _200  and  _201
REMARK   77  A    between atoms: _207  and  _209
REMARK   78  A    between atoms: _209  and  _210
REMARK   79  A    between atoms: _209  and  _212
REMARK   80  A    between atoms: _212  and  _213
REMARK   81  A    between atoms: _213  and  _214
REMARK   82  A    between atoms: _219  and  _221
REMARK   83  A    between atoms: _221  and  _222
REMARK   84  A    between atoms: _221  and  _224
REMARK   85  A    between atoms: _224  and  _225
REMARK   86  A    between atoms: _227  and  _229
REMARK   87  A    between atoms: _229  and  _230
REMARK   88  A    between atoms: _229  and  _232
REMARK   89  A    between atoms: _232  and  _233
REMARK   90  A    between atoms: _238  and  _239
REMARK   91  A    between atoms: _241  and  _243
REMARK   92  A    between atoms: _243  and  _244
REMARK   93  A    between atoms: _243  and  _246
REMARK   94  A    between atoms: _246  and  _247
REMARK   95  A    between atoms: _247  and  _248
REMARK   96  A    between atoms: _248  and  _249
REMARK   97  A    between atoms: _258  and  _260
REMARK   98  A    between atoms: _260  and  _261
REMARK   99  A    between atoms: _260  and  _263
REMARK  100  A    between atoms: _263  and  _264
REMARK  101  A    between atoms: _267  and  _269
REMARK  102  A    between atoms: _269  and  _270
REMARK  103  A    between atoms: _269  and  _272
REMARK  104  A    between atoms: _272  and  _273
REMARK  105  A    between atoms: _276  and  _278
REMARK  106  A    between atoms: _278  and  _279
REMARK  107  A    between atoms: _278  and  _281
REMARK  108  A    between atoms: _281  and  _282
REMARK  109  A    between atoms: _284  and  _286
REMARK  110  A    between atoms: _286  and  _287
REMARK  111  A    between atoms: _289  and  _291
REMARK  112  A    between atoms: _291  and  _292
REMARK  113  A    between atoms: _291  and  _294
REMARK  114  A    between atoms: _297  and  _299
REMARK  115  A    between atoms: _299  and  _300
REMARK  116  A    between atoms: _299  and  _302
REMARK  117  A    between atoms: _302  and  _303
REMARK  118  A    between atoms: _308  and  _309
REMARK  119  A    between atoms: _311  and  _313
REMARK  120  A    between atoms: _313  and  _314
REMARK  121  A    between atoms: _313  and  _316
REMARK  122  A    between atoms: _316  and  _317
REMARK  123  A    between atoms: _317  and  _318
REMARK  124  A    between atoms: _320  and  _322
REMARK  125  A    between atoms: _322  and  _323
REMARK  126  A    between atoms: _322  and  _325
REMARK  127  A    between atoms: _325  and  _326
REMARK  128  A    between atoms: _328  and  _330
REMARK  129  A    between atoms: _330  and  _331
REMARK  130  A    between atoms: _333  and  _335
REMARK  131  A    between atoms: _335  and  _336
REMARK  132  A    between atoms: _335  and  _338
REMARK  133  A    between atoms: _338  and  _339
REMARK  134  A    between atoms: _342  and  _344
REMARK  135  A    between atoms: _344  and  _345
REMARK  136  A    between atoms: _344  and  _347
REMARK  137  A    between atoms: _347  and  _348
REMARK  138  A    between atoms: _351  and  _353
REMARK  139  A    between atoms: _353  and  _354
REMARK  140  A    between atoms: _353  and  _356
REMARK  141  A    between atoms: _356  and  _357
REMARK  142  A    between atoms: _363  and  _365
REMARK  143  A    between atoms: _365  and  _366
REMARK  144  A    between atoms: _365  and  _368
REMARK  145  A    between atoms: _368  and  _369
REMARK  146  A    between atoms: _374  and  _375
REMARK  147  A    between atoms: _377  and  _379
REMARK  148  A    between atoms: _379  and  _380
REMARK  149  A    between atoms: _379  and  _382
REMARK  150  A    between atoms: _382  and  _383
REMARK  151  A    between atoms: _383  and  _384
REMARK  152  A    between atoms: _389  and  _391
REMARK  153  A    between atoms: _391  and  _392
REMARK  154  A    between atoms: _391  and  _394
REMARK  155  A    between atoms: _394  and  _395
REMARK  156  A    between atoms: _400  and  _402
REMARK  157  A    between atoms: _402  and  _403
REMARK  158  A    between atoms: _405  and  _407
REMARK  159  A    between atoms: _407  and  _408
REMARK  160  A    between atoms: _407  and  _410
REMARK  161  A    between atoms: _410  and  _411
REMARK  162  A    between atoms: _413  and  _415
REMARK  163  A    between atoms: _415  and  _416
REMARK  164  A    between atoms: _415  and  _418
REMARK  165  A    between atoms: _418  and  _419
REMARK  166  A    between atoms: _421  and  _423
REMARK  167  A    between atoms: _423  and  _424
REMARK  168  A    between atoms: _423  and  _426
REMARK  169  A    between atoms: _426  and  _427
REMARK  170  A    between atoms: _432  and  _433
REMARK  171  A    between atoms: _435  and  _437
REMARK  172  A    between atoms: _437  and  _438
REMARK  173  A    between atoms: _441  and  _443
REMARK  174  A    between atoms: _443  and  _444
REMARK  175  A    between atoms: _443  and  _446
REMARK  176  A    between atoms: _446  and  _447
REMARK  177  A    between atoms: _453  and  _455
REMARK  178  A    between atoms: _455  and  _456
REMARK  179  A    between atoms: _455  and  _458
REMARK  180  A    between atoms: _458  and  _459
REMARK  181  A    between atoms: _462  and  _464
REMARK  182  A    between atoms: _464  and  _465
REMARK  183  A    between atoms: _464  and  _467
REMARK  184  A    between atoms: _467  and  _468
REMARK  185  A    between atoms: _471  and  _473
REMARK  186  A    between atoms: _473  and  _474
REMARK  187  A    between atoms: _473  and  _476
REMARK  188  A    between atoms: _476  and  _477
REMARK  189  A    between atoms: _480  and  _482
REMARK  190  A    between atoms: _482  and  _483
REMARK  191  A    between atoms: _487  and  _488
REMARK  192  A    between atoms: _493  and  _495
REMARK  193  A    between atoms: _495  and  _496
REMARK  194  A    between atoms: _495  and  _498
REMARK  195  A    between atoms: _498  and  _499
REMARK  196  A    between atoms: _504  and  _506
REMARK  197  A    between atoms: _506  and  _507
REMARK  198  A    between atoms: _506  and  _509
REMARK  199  A    between atoms: _509  and  _510
REMARK  200  A    between atoms: _516  and  _518
REMARK  201  A    between atoms: _518  and  _519
REMARK  202  A    between atoms: _518  and  _521
REMARK  203  A    between atoms: _521  and  _522
REMARK  204  A    between atoms: _522  and  _523
REMARK  205  A    between atoms: _523  and  _524
REMARK  206  A    between atoms: _524  and  _525
REMARK  207  A    between atoms: _529  and  _531
REMARK  208  A    between atoms: _531  and  _532
REMARK  209  A    between atoms: _531  and  _534
REMARK  210  A    between atoms: _534  and  _535
REMARK  211  A    between atoms: _540  and  _542
REMARK  212  A    between atoms: _542  and  _543
REMARK  213  A    between atoms: _542  and  _545
REMARK  214  A    between atoms: _545  and  _546
REMARK  215  A    between atoms: _551  and  _553
REMARK  216  A    between atoms: _553  and  _554
REMARK  217  A    between atoms: _553  and  _556
REMARK  218  A    between atoms: _556  and  _557
REMARK  219  A    between atoms: _559  and  _561
REMARK  220  A    between atoms: _561  and  _562
REMARK  221  A    between atoms: _561  and  _564
REMARK  222  A    between atoms: _564  and  _565
REMARK  223  A    between atoms: _570  and  _572
REMARK  224  A    between atoms: _572  and  _573
REMARK  225  A    between atoms: _572  and  _575
REMARK  226  A    between atoms: _575  and  _576
REMARK  227  A    between atoms: _581  and  _582
REMARK  228  A    between atoms: _584  and  _586
REMARK  229  A    between atoms: _586  and  _587
REMARK  230  A    between atoms: _586  and  _589
REMARK  231  A    between atoms: _589  and  _590
REMARK  232  A    between atoms: _593  and  _595
REMARK  233  A    between atoms: _595  and  _596
REMARK  234  A    between atoms: _598  and  _600
REMARK  235  A    between atoms: _600  and  _601
REMARK  236  A    between atoms: _600  and  _603
REMARK  237  A    between atoms: _603  and  _604
REMARK  238  A    between atoms: _609  and  _611
REMARK  239  A    between atoms: _611  and  _612
REMARK  240  A    between atoms: _611  and  _614
REMARK  241  A    between atoms: _614  and  _615
REMARK  242  A    between atoms: _617  and  _619
REMARK  243  A    between atoms: _619  and  _620
REMARK  244  A    between atoms: _619  and  _622
REMARK  245  A    between atoms: _622  and  _623
REMARK  246  A    between atoms: _626  and  _628
REMARK  247  A    between atoms: _628  and  _629
REMARK  248  A    between atoms: _628  and  _631
REMARK  249  A    between atoms: _631  and  _632
REMARK  250  A    between atoms: _634  and  _636
REMARK  251  A    between atoms: _636  and  _637
REMARK  252  A    between atoms: _636  and  _639
REMARK  253  A    between atoms: _639  and  _640
REMARK  254  A    between atoms: _643  and  _645
REMARK  255  A    between atoms: _645  and  _646
REMARK  256  A    between atoms: _645  and  _648
REMARK  257  A    between atoms: _648  and  _649
REMARK                            x       y       z     vdW  Elec       q    Type
REMARK                         _______ _______ _______ _____ _____    ______ ____
ROOT
ATOM      1  CA  LEU A   1      23.454  13.119  12.915  0.00  0.00    +0.133 C 
ENDROOT
BRANCH   1   2
ATOM      2  N   LEU A   1      24.679  12.875  12.163  0.00  0.00    -0.239 NA
ATOM      3  H   LEU A   1      25.403  12.250  12.571  0.00  0.00    +0.142 HD
ENDBRANCH   1   2
BRANCH   1   4
ATOM      4  C   LEU A   1      23.383  14.569  13.387  0.00  0.00    +0.224 C 
ATOM      5  O   LEU A   1      22.299  15.103  13.630  0.00  0.00    -0.287 OA
ENDBRANCH   1   4
BRANCH   1   6
ATOM      6  CB  LEU A   1      23.393  12.180  14.123  0.00  0.00    +0.025 C 
BRANCH   6   7
ATOM      7  CG  LEU A   1      22.184  12.312  15.053  0.00  0.00    +0.002 C 
ATOM      8  CD2 LEU A   1      22.367  11.408  16.261  0.00  0.00    +0.000 C 
ATOM      9  CD1 LEU A   1      20.917  11.944  14.303  0.00  0.00    +0.000 C 
ENDBRANCH   6   7
ENDBRANCH   1   6
TORSDOF 4
REMARK  Name = ../refined-set-2016/1ro7/1ro7_pocket.pdb
REMARK  257 active torsions:
REMARK  status: ('A' for Active; 'I' for Inactive)
REMARK    1  A    between atoms: _1  and  _3
REMARK    2  A    between atoms: _3  and  _4
REMARK    3  A    between atoms: _3  and  _6
REMARK    4  A    between atoms: _6  and  _7
REMARK    5  A    between atoms: _10  and  _12
REMARK    6  A    between atoms: _12  and  _13
REMARK    7  A    between atoms: _16  and  _18
REMARK    8  A    between atoms: _18  and  _19
REMARK    9  A    between atoms: _21  and  _23
REMARK   10  A    between atoms: _23  and  _24
REMARK   11  A    between atoms: _23  and  _26
REMARK   12  A    between atoms: _26  and  _27
REMARK   13  A    between atoms: _32  and  _34
REMARK   14  A    between atoms: _34  and  _35
REMARK   15  A    between atoms: _38  and  _39
REMARK   16  A    between atoms: _44  and  _46
REMARK   17  A    between atoms: _46  and  _47
REMARK   18  A    between atoms: _46  and  _49
REMARK   19  A    between atoms: _49  and  _50
REMARK   20  A    between atoms: _52  and  _54
REMARK   21  A    between atoms: _54  and  _55
REMARK   22  A    between atoms: _54  and  _57
REMARK   23  A    between atoms: _57  and  _58
REMARK   24  A    between atoms: _61  and  _63
REMARK   25  A    between atoms: _63  and  _64
REMARK   26  A    between atoms: _63  and  _66
REMARK   27  A    between atoms: _66  and  _67
REMARK   28  A    between atoms: _67  and  _68
REMARK   29  A    between atoms: _68  and  _69
REMARK   30  A    between atoms: _78  and  _80
REMARK   31  A    between atoms: _80  and  _81
REMARK   32  A    between atoms: _80  and  _83
REMARK   33  A    between atoms: _85  and  _87
REMARK   34  A    between atoms: _87  and  _88
REMARK   35  A    between atoms: _87  and  _90
REMARK   36  A    between atoms: _90  and  _91
REMARK   37  A    between atoms: _96  and  _98
REMARK   38  A    between atoms: _98  and  _99
REMARK   39  A    between atoms: _98  and  _101
REMARK   40  A    between atoms: _101  and  _102
REMARK   41  A    between atoms: _102  and  _103
REMARK   42  A    between atoms: _108  and  _110
REMARK   43  A    between atoms: _110  and  _111
REMARK   44  A    between atoms: _110  and  _113
REMARK   45  A    between atoms: _113  and  _114
REMARK   46  A    between atoms: _120  and  _122
REMARK   47  A    between atoms: _122  and  _123
REMARK   48  A    between atoms: _122  and  _125
REMARK   49  A    between atoms: _125  and  _126
REMARK   50  A    between atoms: _131  and  _132
REMARK   51  A    between atoms: _134  and  _136
REMARK   52  A    between atoms: _136  and  _137
REMARK   53  A    between atoms: _136  and  _139
REMARK   54  A    between atoms: _139  and  _140
REMARK   55  A    between atoms: _146  and  _148
REMARK   56  A    between atoms: _148  and  _149
REMARK   57  A    between atoms: _148  and  _151
REMARK   58  A    between atoms: _151  and  _152
REMARK   59  A    between atoms: _157  and  _158
REMARK   60  A    between atoms: _160  and  _162
REMARK   61  A    between atoms: _162  and  _163
REMARK   62  A    between atoms: _162  and  _165
REMARK   63  A    between atoms: _165  and  _166
REMARK   64  A    between atoms: _172  and  _173
REMARK   65  A    between atoms: _178  and  _180
REMARK   66  A    between atoms: _180  and  _181
REMARK   67  A    between atoms: _180  and  _183
REMARK   68  A    between atoms: _183  and  _184
REMARK   69  A    between atoms: _186  and  _188
REMARK   70  A    between atoms: _188  and  _189
REMARK   71  A    between atoms: _188  and  _191
REMARK   72  A    between atoms: _191  and  _192
REMARK   73  A    between atoms: _195  and  _197
REMARK   74  A    between atoms: _197  and  _198
REMARK   75  A    between atoms: _197  and  _200
REMARK   76  A    between atoms: _200  and  _201
REMARK   77  A    between atoms: _207  and  _209
REMARK   78  A    between atoms: _209  and  _210
REMARK   79  A    between atoms: _209  and  _212
REMARK   80  A    between atoms: _212  and  _213
REMARK   81  A    between atoms: _213  and  _214
REMARK   82  A    between atoms: _219  and  _221
REMARK   83  A    between atoms: _221  and  _222
REMARK   84  A    between atoms: _221  and  _224
REMARK   85  A    between atoms: _224  and  _225
REMARK   86  A    between atoms: _227  and  _229
REMARK   87  A    between atoms: _229  and  _230
REMARK   88  A    between atoms: _229  and  _232
REMARK   89  A    between atoms: _232  and  _233
REMARK   90  A    between atoms: _238  and  _239
REMARK   91  A    between atoms: _241  and  _243
REMARK   92  A    between atoms: _243  and  _244
REMARK   93  A    between atoms: _243  and  _246
REMARK   94  A    between atoms: _246  and  _247
REMARK   95  A    between atoms: _247  and  _248
REMARK   96  A    between atoms: _248  and  _249
REMARK   97  A    between atoms: _258  and  _260
REMARK   98  A    between atoms: _260  and  _261
REMARK   99  A    between atoms: _260  and  _263
REMARK  100  A    between atoms: _263  and  _264
REMARK  101  A    between atoms: _267  and  _269
REMARK  102  A    between atoms: _269  and  _270
REMARK  103  A    between atoms: _269  and  _272
REMARK  104  A    between atoms: _272  and  _273
REMARK  105  A    between atoms: _276  and  _278
REMARK  106  A    between atoms: _278  and  _279
REMARK  107  A    between atoms: _278  and  _281
REMARK  108  A    between atoms: _281  and  _282
REMARK  109  A    between atoms: _284  and  _286
REMARK  110  A    between atoms: _286  and  _287
REMARK  111  A    between atoms: _289  and  _291
REMARK  112  A    between atoms: _291  and  _292
REMARK  113  A    between atoms: _291  and  _294
REMARK  114  A    between atoms: _297  and  _299
REMARK  115  A    between atoms: _299  and  _300
REMARK  116  A    between atoms: _299  and  _302
REMARK  117  A    between atoms: _302  and  _303
REMARK  118  A    between atoms: _308  and  _309
REMARK  119  A    between atoms: _311  and  _313
REMARK  120  A    between atoms: _313  and  _314
REMARK  121  A    between atoms: _313  and  _316
REMARK  122  A    between atoms: _316  and  _317
REMARK  123  A    between atoms: _317  and  _318
REMARK  124  A    between atoms: _320  and  _322
REMARK  125  A    between atoms: _322  and  _323
REMARK  126  A    between atoms: _322  and  _325
REMARK  127  A    between atoms: _325  and  _326
REMARK  128  A    between atoms: _328  and  _330
REMARK  129  A    between atoms: _330  and  _331
REMARK  130  A    between atoms: _333  and  _335
REMARK  131  A    between atoms: _335  and  _336
REMARK  132  A    between atoms: _335  and  _338
REMARK  133  A    between atoms: _338  and  _339
REMARK  134  A    between atoms: _342  and  _344
REMARK  135  A    between atoms: _344  and  _345
REMARK  136  A    between atoms: _344  and  _347
REMARK  137  A    between atoms: _347  and  _348
REMARK  138  A    between atoms: _351  and  _353
REMARK  139  A    between atoms: _353  and  _354
REMARK  140  A    between atoms: _353  and  _356
REMARK  141  A    between atoms: _356  and  _357
REMARK  142  A    between atoms: _363  and  _365
REMARK  143  A    between atoms: _365  and  _366
REMARK  144  A    between atoms: _365  and  _368
REMARK  145  A    between atoms: _368  and  _369
REMARK  146  A    between atoms: _374  and  _375
REMARK  147  A    between atoms: _377  and  _379
REMARK  148  A    between atoms: _379  and  _380
REMARK  149  A    between atoms: _379  and  _382
REMARK  150  A    between atoms: _382  and  _383
REMARK  151  A    between atoms: _383  and  _384
REMARK  152  A    between atoms: _389  and  _391
REMARK  153  A    between atoms: _391  and  _392
REMARK  154  A    between atoms: _391  and  _394
REMARK  155  A    between atoms: _394  and  _395
REMARK  156  A    between atoms: _400  and  _402
REMARK  157  A    between atoms: _402  and  _403
REMARK  158  A    between atoms: _405  and  _407
REMARK  159  A    between atoms: _407  and  _408
REMARK  160  A    between atoms: _407  and  _410
REMARK  161  A    between atoms: _410  and  _411
REMARK  162  A    between atoms: _413  and  _415
REMARK  163  A    between atoms: _415  and  _416
REMARK  164  A    between atoms: _415  and  _418
REMARK  165  A    between atoms: _418  and  _419
REMARK  166  A    between atoms: _421  and  _423
REMARK  167  A    between atoms: _423  and  _424
REMARK  168  A    between atoms: _423  and  _426
REMARK  169  A    between atoms: _426  and  _427
REMARK  170  A    between atoms: _432  and  _433
REMARK  171  A    between atoms: _435  and  _437
REMARK  172  A    between atoms: _437  and  _438
REMARK  173  A    between atoms: _441  and  _443
REMARK  174  A    between atoms: _443  and  _444
REMARK  175  A    between atoms: _443  and  _446
REMARK  176  A    between atoms: _446  and  _447
REMARK  177  A    between atoms: _453  and  _455
REMARK  178  A    between atoms: _455  and  _456
REMARK  179  A    between atoms: _455  and  _458
REMARK  180  A    between atoms: _458  and  _459
REMARK  181  A    between atoms: _462  and  _464
REMARK  182  A    between atoms: _464  and  _465
REMARK  183  A    between atoms: _464  and  _467
REMARK  184  A    between atoms: _467  and  _468
REMARK  185  A    between atoms: _471  and  _473
REMARK  186  A    between atoms: _473  and  _474
REMARK  187  A    between atoms: _473  and  _476
REMARK  188  A    between atoms: _476  and  _477
REMARK  189  A    between atoms: _480  and  _482
REMARK  190  A    between atoms: _482  and  _483
REMARK  191  A    between atoms: _487  and  _488
REMARK  192  A    between atoms: _493  and  _495
REMARK  193  A    between atoms: _495  and  _496
REMARK  194  A    between atoms: _495  and  _498
REMARK  195  A    between atoms: _498  and  _499
REMARK  196  A    between atoms: _504  and  _506
REMARK  197  A    between atoms: _506  and  _507
REMARK  198  A    between atoms: _506  and  _509
REMARK  199  A    between atoms: _509  and  _510
REMARK  200  A    between atoms: _516  and  _518
REMARK  201  A    between atoms: _518  and  _519
REMARK  202  A    between atoms: _518  and  _521
REMARK  203  A    between atoms: _521  and  _522
REMARK  204  A    between atoms: _522  and  _523
REMARK  205  A    between atoms: _523  and  _524
REMARK  206  A    between atoms: _524  and  _525
REMARK  207  A    between atoms: _529  and  _531
REMARK  208  A    between atoms: _531  and  _532
REMARK  209  A    between atoms: _531  and  _534
REMARK  210  A    between atoms: _534  and  _535
REMARK  211  A    between atoms: _540  and  _542
REMARK  212  A    between atoms: _542  and  _543
REMARK  213  A    between atoms: _542  and  _545
REMARK  214  A    between atoms: _545  and  _546
REMARK  215  A    between atoms: _551  and  _553
REMARK  216  A    between atoms: _553  and  _554
REMARK  217  A    between atoms: _553  and  _556
REMARK  218  A    between atoms: _556  and  _557
REMARK  219  A    between atoms: _559  and  _561
REMARK  220  A    between atoms: _561  and  _562
REMARK  221  A    between atoms: _561  and  _564
REMARK  222  A    between atoms: _564  and  _565
REMARK  223  A    between atoms: _570  and  _572
REMARK  224  A    between atoms: _572  and  _573
REMARK  225  A    between atoms: _572  and  _575
REMARK  226  A    between atoms: _575  and  _576
REMARK  227  A    between atoms: _581  and  _582
REMARK  228  A    between atoms: _584  and  _586
REMARK  229  A    between atoms: _586  and  _587
REMARK  230  A    between atoms: _586  and  _589
REMARK  231  A    between atoms: _589  and  _590
REMARK  232  A    between atoms: _593  and  _595
REMARK  233  A    between atoms: _595  and  _596
REMARK  234  A    between atoms: _598  and  _600
REMARK  235  A    between atoms: _600  and  _601
REMARK  236  A    between atoms: _600  and  _603
REMARK  237  A    between atoms: _603  and  _604
REMARK  238  A    between atoms: _609  and  _611
REMARK  239  A    between atoms: _611  and  _612
REMARK  240  A    between atoms: _611  and  _614
REMARK  241  A    between atoms: _614  and  _615
REMARK  242  A    between atoms: _617  and  _619
REMARK  243  A    between atoms: _619  and  _620
REMARK  244  A    between atoms: _619  and  _622
REMARK  245  A    between atoms: _622  and  _623
REMARK  246  A    between atoms: _626  and  _628
REMARK  247  A    between atoms: _628  and  _629
REMARK  248  A    between atoms: _628  and  _631
REMARK  249  A    between atoms: _631  and  _632
REMARK  250  A    between atoms: _634  and  _636
REMARK  251  A    between atoms: _636  and  _637
REMARK  252  A    between atoms: _636  and  _639
REMARK  253  A    between atoms: _639  and  _640
REMARK  254  A    between atoms: _643  and  _645
REMARK  255  A    between atoms: _645  and  _646
REMARK  256  A    between atoms: _645  and  _648
REMARK  257  A    between atoms: _648  and  _649
REMARK                            x       y       z     vdW  Elec       q    Type
REMARK                         _______ _______ _______ _____ _____    ______ ____
ROOT
ATOM      1  CA  ILE A   1      29.188 -13.136  21.192  0.00  0.00    +0.133 C 
ENDROOT
BRANCH   1   2
ATOM      2  N   ILE A   1      30.369 -12.522  20.600  0.00  0.00    -0.239 NA
ATOM      3  H   ILE A   1      30.384 -12.309  19.582  0.00  0.00    +0.142 HD
ENDBRANCH   1   2
BRANCH   1   4
ATOM      4  C   ILE A   1      29.520 -14.596  21.525  0.00  0.00    +0.224 C 
ATOM      5  O   ILE A   1      30.408 -15.193  20.913  0.00  0.00    -0.287 OA
ENDBRANCH   1   4
BRANCH   1   6
ATOM      6  CB  ILE A   1      27.976 -13.042  20.215  0.00  0.00    +0.023 C 
ATOM      7  CG2 ILE A   1      28.254 -13.839  18.941  0.00  0.00    +0.002 C 
BRANCH   6   8
ATOM      8  CG1 ILE A   1      26.699 -13.534  20.905  0.00  0.00    +0.002 C 
ATOM      9  CD1 ILE A   1      25.436 -13.250  20.109  0.00  0.00    +0.000 C 
ENDBRANCH   6   8
ENDBRANCH   1   6
TORSDOF 4
REMARK  Name = ../refined-set-2016/1ro7/1ro7_pocket.pdb
REMARK  257 active torsions:
REMARK  status: ('A' for Active; 'I' for Inactive)
REMARK    1  A    between atoms: _1  and  _3
REMARK    2  A    between atoms: _3  and  _4
REMARK    3  A    between atoms: _3  and  _6
REMARK    4  A    between atoms: _6  and  _7
REMARK    5  A    between atoms: _10  and  _12
REMARK    6  A    between atoms: _12  and  _13
REMARK    7  A    between atoms: _16  and  _18
REMARK    8  A    between atoms: _18  and  _19
REMARK    9  A    between atoms: _21  and  _23
REMARK   10  A    between atoms: _23  and  _24
REMARK   11  A    between atoms: _23  and  _26
REMARK   12  A    between atoms: _26  and  _27
REMARK   13  A    between atoms: _32  and  _34
REMARK   14  A    between atoms: _34  and  _35
REMARK   15  A    between atoms: _38  and  _39
REMARK   16  A    between atoms: _44  and  _46
REMARK   17  A    between atoms: _46  and  _47
REMARK   18  A    between atoms: _46  and  _49
REMARK   19  A    between atoms: _49  and  _50
REMARK   20  A    between atoms: _52  and  _54
REMARK   21  A    between atoms: _54  and  _55
REMARK   22  A    between atoms: _54  and  _57
REMARK   23  A    between atoms: _57  and  _58
REMARK   24  A    between atoms: _61  and  _63
REMARK   25  A    between atoms: _63  and  _64
REMARK   26  A    between atoms: _63  and  _66
REMARK   27  A    between atoms: _66  and  _67
REMARK   28  A    between atoms: _67  and  _68
REMARK   29  A    between atoms: _68  and  _69
REMARK   30  A    between atoms: _78  and  _80
REMARK   31  A    between atoms: _80  and  _81
REMARK   32  A    between atoms: _80  and  _83
REMARK   33  A    between atoms: _85  and  _87
REMARK   34  A    between atoms: _87  and  _88
REMARK   35  A    between atoms: _87  and  _90
REMARK   36  A    between atoms: _90  and  _91
REMARK   37  A    between atoms: _96  and  _98
REMARK   38  A    between atoms: _98  and  _99
REMARK   39  A    between atoms: _98  and  _101
REMARK   40  A    between atoms: _101  and  _102
REMARK   41  A    between atoms: _102  and  _103
REMARK   42  A    between atoms: _108  and  _110
REMARK   43  A    between atoms: _110  and  _111
REMARK   44  A    between atoms: _110  and  _113
REMARK   45  A    between atoms: _113  and  _114
REMARK   46  A    between atoms: _120  and  _122
REMARK   47  A    between atoms: _122  and  _123
REMARK   48  A    between atoms: _122  and  _125
REMARK   49  A    between atoms: _125  and  _126
REMARK   50  A    between atoms: _131  and  _132
REMARK   51  A    between atoms: _134  and  _136
REMARK   52  A    between atoms: _136  and  _137
REMARK   53  A    between atoms: _136  and  _139
REMARK   54  A    between atoms: _139  and  _140
REMARK   55  A    between atoms: _146  and  _148
REMARK   56  A    between atoms: _148  and  _149
REMARK   57  A    between atoms: _148  and  _151
REMARK   58  A    between atoms: _151  and  _152
REMARK   59  A    between atoms: _157  and  _158
REMARK   60  A    between atoms: _160  and  _162
REMARK   61  A    between atoms: _162  and  _163
REMARK   62  A    between atoms: _162  and  _165
REMARK   63  A    between atoms: _165  and  _166
REMARK   64  A    between atoms: _172  and  _173
REMARK   65  A    between atoms: _178  and  _180
REMARK   66  A    between atoms: _180  and  _181
REMARK   67  A    between atoms: _180  and  _183
REMARK   68  A    between atoms: _183  and  _184
REMARK   69  A    between atoms: _186  and  _188
REMARK   70  A    between atoms: _188  and  _189
REMARK   71  A    between atoms: _188  and  _191
REMARK   72  A    between atoms: _191  and  _192
REMARK   73  A    between atoms: _195  and  _197
REMARK   74  A    between atoms: _197  and  _198
REMARK   75  A    between atoms: _197  and  _200
REMARK   76  A    between atoms: _200  and  _201
REMARK   77  A    between atoms: _207  and  _209
REMARK   78  A    between atoms: _209  and  _210
REMARK   79  A    between atoms: _209  and  _212
REMARK   80  A    between atoms: _212  and  _213
REMARK   81  A    between atoms: _213  and  _214
REMARK   82  A    between atoms: _219  and  _221
REMARK   83  A    between atoms: _221  and  _222
REMARK   84  A    between atoms: _221  and  _224
REMARK   85  A    between atoms: _224  and  _225
REMARK   86  A    between atoms: _227  and  _229
REMARK   87  A    between atoms: _229  and  _230
REMARK   88  A    between atoms: _229  and  _232
REMARK   89  A    between atoms: _232  and  _233
REMARK   90  A    between atoms: _238  and  _239
REMARK   91  A    between atoms: _241  and  _243
REMARK   92  A    between atoms: _243  and  _244
REMARK   93  A    between atoms: _243  and  _246
REMARK   94  A    between atoms: _246  and  _247
REMARK   95  A    between atoms: _247  and  _248
REMARK   96  A    between atoms: _248  and  _249
REMARK   97  A    between atoms: _258  and  _260
REMARK   98  A    between atoms: _260  and  _261
REMARK   99  A    between atoms: _260  and  _263
REMARK  100  A    between atoms: _263  and  _264
REMARK  101  A    between atoms: _267  and  _269
REMARK  102  A    between atoms: _269  and  _270
REMARK  103  A    between atoms: _269  and  _272
REMARK  104  A    between atoms: _272  and  _273
REMARK  105  A    between atoms: _276  and  _278
REMARK  106  A    between atoms: _278  and  _279
REMARK  107  A    between atoms: _278  and  _281
REMARK  108  A    between atoms: _281  and  _282
REMARK  109  A    between atoms: _284  and  _286
REMARK  110  A    between atoms: _286  and  _287
REMARK  111  A    between atoms: _289  and  _291
REMARK  112  A    between atoms: _291  and  _292
REMARK  113  A    between atoms: _291  and  _294
REMARK  114  A    between atoms: _297  and  _299
REMARK  115  A    between atoms: _299  and  _300
REMARK  116  A    between atoms: _299  and  _302
REMARK  117  A    between atoms: _302  and  _303
REMARK  118  A    between atoms: _308  and  _309
REMARK  119  A    between atoms: _311  and  _313
REMARK  120  A    between atoms: _313  and  _314
REMARK  121  A    between atoms: _313  and  _316
REMARK  122  A    between atoms: _316  and  _317
REMARK  123  A    between atoms: _317  and  _318
REMARK  124  A    between atoms: _320  and  _322
REMARK  125  A    between atoms: _322  and  _323
REMARK  126  A    between atoms: _322  and  _325
REMARK  127  A    between atoms: _325  and  _326
REMARK  128  A    between atoms: _328  and  _330
REMARK  129  A    between atoms: _330  and  _331
REMARK  130  A    between atoms: _333  and  _335
REMARK  131  A    between atoms: _335  and  _336
REMARK  132  A    between atoms: _335  and  _338
REMARK  133  A    between atoms: _338  and  _339
REMARK  134  A    between atoms: _342  and  _344
REMARK  135  A    between atoms: _344  and  _345
REMARK  136  A    between atoms: _344  and  _347
REMARK  137  A    between atoms: _347  and  _348
REMARK  138  A    between atoms: _351  and  _353
REMARK  139  A    between atoms: _353  and  _354
REMARK  140  A    between atoms: _353  and  _356
REMARK  141  A    between atoms: _356  and  _357
REMARK  142  A    between atoms: _363  and  _365
REMARK  143  A    between atoms: _365  and  _366
REMARK  144  A    between atoms: _365  and  _368
REMARK  145  A    between atoms: _368  and  _369
REMARK  146  A    between atoms: _374  and  _375
REMARK  147  A    between atoms: _377  and  _379
REMARK  148  A    between atoms: _379  and  _380
REMARK  149  A    between atoms: _379  and  _382
REMARK  150  A    between atoms: _382  and  _383
REMARK  151  A    between atoms: _383  and  _384
REMARK  152  A    between atoms: _389  and  _391
REMARK  153  A    between atoms: _391  and  _392
REMARK  154  A    between atoms: _391  and  _394
REMARK  155  A    between atoms: _394  and  _395
REMARK  156  A    between atoms: _400  and  _402
REMARK  157  A    between atoms: _402  and  _403
REMARK  158  A    between atoms: _405  and  _407
REMARK  159  A    between atoms: _407  and  _408
REMARK  160  A    between atoms: _407  and  _410
REMARK  161  A    between atoms: _410  and  _411
REMARK  162  A    between atoms: _413  and  _415
REMARK  163  A    between atoms: _415  and  _416
REMARK  164  A    between atoms: _415  and  _418
REMARK  165  A    between atoms: _418  and  _419
REMARK  166  A    between atoms: _421  and  _423
REMARK  167  A    between atoms: _423  and  _424
REMARK  168  A    between atoms: _423  and  _426
REMARK  169  A    between atoms: _426  and  _427
REMARK  170  A    between atoms: _432  and  _433
REMARK  171  A    between atoms: _435  and  _437
REMARK  172  A    between atoms: _437  and  _438
REMARK  173  A    between atoms: _441  and  _443
REMARK  174  A    between atoms: _443  and  _444
REMARK  175  A    between atoms: _443  and  _446
REMARK  176  A    between atoms: _446  and  _447
REMARK  177  A    between atoms: _453  and  _455
REMARK  178  A    between atoms: _455  and  _456
REMARK  179  A    between atoms: _455  and  _458
REMARK  180  A    between atoms: _458  and  _459
REMARK  181  A    between atoms: _462  and  _464
REMARK  182  A    between atoms: _464  and  _465
REMARK  183  A    between atoms: _464  and  _467
REMARK  184  A    between atoms: _467  and  _468
REMARK  185  A    between atoms: _471  and  _473
REMARK  186  A    between atoms: _473  and  _474
REMARK  187  A    between atoms: _473  and  _476
REMARK  188  A    between atoms: _476  and  _477
REMARK  189  A    between atoms: _480  and  _482
REMARK  190  A    between atoms: _482  and  _483
REMARK  191  A    between atoms: _487  and  _488
REMARK  192  A    between atoms: _493  and  _495
REMARK  193  A    between atoms: _495  and  _496
REMARK  194  A    between atoms: _495  and  _498
REMARK  195  A    between atoms: _498  and  _499
REMARK  196  A    between atoms: _504  and  _506
REMARK  197  A    between atoms: _506  and  _507
REMARK  198  A    between atoms: _506  and  _509
REMARK  199  A    between atoms: _509  and  _510
REMARK  200  A    between atoms: _516  and  _518
REMARK  201  A    between atoms: _518  and  _519
REMARK  202  A    between atoms: _518  and  _521
REMARK  203  A    between atoms: _521  and  _522
REMARK  204  A    between atoms: _522  and  _523
REMARK  205  A    between atoms: _523  and  _524
REMARK  206  A    between atoms: _524  and  _525
REMARK  207  A    between atoms: _529  and  _531
REMARK  208  A    between atoms: _531  and  _532
REMARK  209  A    between atoms: _531  and  _534
REMARK  210  A    between atoms: _534  and  _535
REMARK  211  A    between atoms: _540  and  _542
REMARK  212  A    between atoms: _542  and  _543
REMARK  213  A    between atoms: _542  and  _545
REMARK  214  A    between atoms: _545  and  _546
REMARK  215  A    between atoms: _551  and  _553
REMARK  216  A    between atoms: _553  and  _554
REMARK  217  A    between atoms: _553  and  _556
REMARK  218  A    between atoms: _556  and  _557
REMARK  219  A    between atoms: _559  and  _561
REMARK  220  A    between atoms: _561  and  _562
REMARK  221  A    between atoms: _561  and  _564
REMARK  222  A    between atoms: _564  and  _565
REMARK  223  A    between atoms: _570  and  _572
REMARK  224  A    between atoms: _572  and  _573
REMARK  225  A    between atoms: _572  and  _575
REMARK  226  A    between atoms: _575  and  _576
REMARK  227  A    between atoms: _581  and  _582
REMARK  228  A    between atoms: _584  and  _586
REMARK  229  A    between atoms: _586  and  _587
REMARK  230  A    between atoms: _586  and  _589
REMARK  231  A    between atoms: _589  and  _590
REMARK  232  A    between atoms: _593  and  _595
REMARK  233  A    between atoms: _595  and  _596
REMARK  234  A    between atoms: _598  and  _600
REMARK  235  A    between atoms: _600  and  _601
REMARK  236  A    between atoms: _600  and  _603
REMARK  237  A    between atoms: _603  and  _604
REMARK  238  A    between atoms: _609  and  _611
REMARK  239  A    between atoms: _611  and  _612
REMARK  240  A    between atoms: _611  and  _614
REMARK  241  A    between atoms: _614  and  _615
REMARK  242  A    between atoms: _617  and  _619
REMARK  243  A    between atoms: _619  and  _620
REMARK  244  A    between atoms: _619  and  _622
REMARK  245  A    between atoms: _622  and  _623
REMARK  246  A    between atoms: _626  and  _628
REMARK  247  A    between atoms: _628  and  _629
REMARK  248  A    between atoms: _628  and  _631
REMARK  249  A    between atoms: _631  and  _632
REMARK  250  A    between atoms: _634  and  _636
REMARK  251  A    between atoms: _636  and  _637
REMARK  252  A    between atoms: _636  and  _639
REMARK  253  A    between atoms: _639  and  _640
REMARK  254  A    between atoms: _643  and  _645
REMARK  255  A    between atoms: _645  and  _646
REMARK  256  A    between atoms: _645  and  _648
REMARK  257  A    between atoms: _648  and  _649
REMARK                            x       y       z     vdW  Elec       q    Type
REMARK                         _______ _______ _______ _____ _____    ______ ____
ROOT
ATOM      1  O   HOH     1      26.072  -3.799  17.174  0.00  0.00    +0.000 OA
ENDROOT
TORSDOF 0
REMARK  Name = ../refined-set-2016/1ro7/1ro7_pocket.pdb
REMARK  257 active torsions:
REMARK  status: ('A' for Active; 'I' for Inactive)
REMARK    1  A    between atoms: _1  and  _3
REMARK    2  A    between atoms: _3  and  _4
REMARK    3  A    between atoms: _3  and  _6
REMARK    4  A    between atoms: _6  and  _7
REMARK    5  A    between atoms: _10  and  _12
REMARK    6  A    between atoms: _12  and  _13
REMARK    7  A    between atoms: _16  and  _18
REMARK    8  A    between atoms: _18  and  _19
REMARK    9  A    between atoms: _21  and  _23
REMARK   10  A    between atoms: _23  and  _24
REMARK   11  A    between atoms: _23  and  _26
REMARK   12  A    between atoms: _26  and  _27
REMARK   13  A    between atoms: _32  and  _34
REMARK   14  A    between atoms: _34  and  _35
REMARK   15  A    between atoms: _38  and  _39
REMARK   16  A    between atoms: _44  and  _46
REMARK   17  A    between atoms: _46  and  _47
REMARK   18  A    between atoms: _46  and  _49
REMARK   19  A    between atoms: _49  and  _50
REMARK   20  A    between atoms: _52  and  _54
REMARK   21  A    between atoms: _54  and  _55
REMARK   22  A    between atoms: _54  and  _57
REMARK   23  A    between atoms: _57  and  _58
REMARK   24  A    between atoms: _61  and  _63
REMARK   25  A    between atoms: _63  and  _64
REMARK   26  A    between atoms: _63  and  _66
REMARK   27  A    between atoms: _66  and  _67
REMARK   28  A    between atoms: _67  and  _68
REMARK   29  A    between atoms: _68  and  _69
REMARK   30  A    between atoms: _78  and  _80
REMARK   31  A    between atoms: _80  and  _81
REMARK   32  A    between atoms: _80  and  _83
REMARK   33  A    between atoms: _85  and  _87
REMARK   34  A    between atoms: _87  and  _88
REMARK   35  A    between atoms: _87  and  _90
REMARK   36  A    between atoms: _90  and  _91
REMARK   37  A    between atoms: _96  and  _98
REMARK   38  A    between atoms: _98  and  _99
REMARK   39  A    between atoms: _98  and  _101
REMARK   40  A    between atoms: _101  and  _102
REMARK   41  A    between atoms: _102  and  _103
REMARK   42  A    between atoms: _108  and  _110
REMARK   43  A    between atoms: _110  and  _111
REMARK   44  A    between atoms: _110  and  _113
REMARK   45  A    between atoms: _113  and  _114
REMARK   46  A    between atoms: _120  and  _122
REMARK   47  A    between atoms: _122  and  _123
REMARK   48  A    between atoms: _122  and  _125
REMARK   49  A    between atoms: _125  and  _126
REMARK   50  A    between atoms: _131  and  _132
REMARK   51  A    between atoms: _134  and  _136
REMARK   52  A    between atoms: _136  and  _137
REMARK   53  A    between atoms: _136  and  _139
REMARK   54  A    between atoms: _139  and  _140
REMARK   55  A    between atoms: _146  and  _148
REMARK   56  A    between atoms: _148  and  _149
REMARK   57  A    between atoms: _148  and  _151
REMARK   58  A    between atoms: _151  and  _152
REMARK   59  A    between atoms: _157  and  _158
REMARK   60  A    between atoms: _160  and  _162
REMARK   61  A    between atoms: _162  and  _163
REMARK   62  A    between atoms: _162  and  _165
REMARK   63  A    between atoms: _165  and  _166
REMARK   64  A    between atoms: _172  and  _173
REMARK   65  A    between atoms: _178  and  _180
REMARK   66  A    between atoms: _180  and  _181
REMARK   67  A    between atoms: _180  and  _183
REMARK   68  A    between atoms: _183  and  _184
REMARK   69  A    between atoms: _186  and  _188
REMARK   70  A    between atoms: _188  and  _189
REMARK   71  A    between atoms: _188  and  _191
REMARK   72  A    between atoms: _191  and  _192
REMARK   73  A    between atoms: _195  and  _197
REMARK   74  A    between atoms: _197  and  _198
REMARK   75  A    between atoms: _197  and  _200
REMARK   76  A    between atoms: _200  and  _201
REMARK   77  A    between atoms: _207  and  _209
REMARK   78  A    between atoms: _209  and  _210
REMARK   79  A    between atoms: _209  and  _212
REMARK   80  A    between atoms: _212  and  _213
REMARK   81  A    between atoms: _213  and  _214
REMARK   82  A    between atoms: _219  and  _221
REMARK   83  A    between atoms: _221  and  _222
REMARK   84  A    between atoms: _221  and  _224
REMARK   85  A    between atoms: _224  and  _225
REMARK   86  A    between atoms: _227  and  _229
REMARK   87  A    between atoms: _229  and  _230
REMARK   88  A    between atoms: _229  and  _232
REMARK   89  A    between atoms: _232  and  _233
REMARK   90  A    between atoms: _238  and  _239
REMARK   91  A    between atoms: _241  and  _243
REMARK   92  A    between atoms: _243  and  _244
REMARK   93  A    between atoms: _243  and  _246
REMARK   94  A    between atoms: _246  and  _247
REMARK   95  A    between atoms: _247  and  _248
REMARK   96  A    between atoms: _248  and  _249
REMARK   97  A    between atoms: _258  and  _260
REMARK   98  A    between atoms: _260  and  _261
REMARK   99  A    between atoms: _260  and  _263
REMARK  100  A    between atoms: _263  and  _264
REMARK  101  A    between atoms: _267  and  _269
REMARK  102  A    between atoms: _269  and  _270
REMARK  103  A    between atoms: _269  and  _272
REMARK  104  A    between atoms: _272  and  _273
REMARK  105  A    between atoms: _276  and  _278
REMARK  106  A    between atoms: _278  and  _279
REMARK  107  A    between atoms: _278  and  _281
REMARK  108  A    between atoms: _281  and  _282
REMARK  109  A    between atoms: _284  and  _286
REMARK  110  A    between atoms: _286  and  _287
REMARK  111  A    between atoms: _289  and  _291
REMARK  112  A    between atoms: _291  and  _292
REMARK  113  A    between atoms: _291  and  _294
REMARK  114  A    between atoms: _297  and  _299
REMARK  115  A    between atoms: _299  and  _300
REMARK  116  A    between atoms: _299  and  _302
REMARK  117  A    between atoms: _302  and  _303
REMARK  118  A    between atoms: _308  and  _309
REMARK  119  A    between atoms: _311  and  _313
REMARK  120  A    between atoms: _313  and  _314
REMARK  121  A    between atoms: _313  and  _316
REMARK  122  A    between atoms: _316  and  _317
REMARK  123  A    between atoms: _317  and  _318
REMARK  124  A    between atoms: _320  and  _322
REMARK  125  A    between atoms: _322  and  _323
REMARK  126  A    between atoms: _322  and  _325
REMARK  127  A    between atoms: _325  and  _326
REMARK  128  A    between atoms: _328  and  _330
REMARK  129  A    between atoms: _330  and  _331
REMARK  130  A    between atoms: _333  and  _335
REMARK  131  A    between atoms: _335  and  _336
REMARK  132  A    between atoms: _335  and  _338
REMARK  133  A    between atoms: _338  and  _339
REMARK  134  A    between atoms: _342  and  _344
REMARK  135  A    between atoms: _344  and  _345
REMARK  136  A    between atoms: _344  and  _347
REMARK  137  A    between atoms: _347  and  _348
REMARK  138  A    between atoms: _351  and  _353
REMARK  139  A    between atoms: _353  and  _354
REMARK  140  A    between atoms: _353  and  _356
REMARK  141  A    between atoms: _356  and  _357
REMARK  142  A    between atoms: _363  and  _365
REMARK  143  A    between atoms: _365  and  _366
REMARK  144  A    between atoms: _365  and  _368
REMARK  145  A    between atoms: _368  and  _369
REMARK  146  A    between atoms: _374  and  _375
REMARK  147  A    between atoms: _377  and  _379
REMARK  148  A    between atoms: _379  and  _380
REMARK  149  A    between atoms: _379  and  _382
REMARK  150  A    between atoms: _382  and  _383
REMARK  151  A    between atoms: _383  and  _384
REMARK  152  A    between atoms: _389  and  _391
REMARK  153  A    between atoms: _391  and  _392
REMARK  154  A    between atoms: _391  and  _394
REMARK  155  A    between atoms: _394  and  _395
REMARK  156  A    between atoms: _400  and  _402
REMARK  157  A    between atoms: _402  and  _403
REMARK  158  A    between atoms: _405  and  _407
REMARK  159  A    between atoms: _407  and  _408
REMARK  160  A    between atoms: _407  and  _410
REMARK  161  A    between atoms: _410  and  _411
REMARK  162  A    between atoms: _413  and  _415
REMARK  163  A    between atoms: _415  and  _416
REMARK  164  A    between atoms: _415  and  _418
REMARK  165  A    between atoms: _418  and  _419
REMARK  166  A    between atoms: _421  and  _423
REMARK  167  A    between atoms: _423  and  _424
REMARK  168  A    between atoms: _423  and  _426
REMARK  169  A    between atoms: _426  and  _427
REMARK  170  A    between atoms: _432  and  _433
REMARK  171  A    between atoms: _435  and  _437
REMARK  172  A    between atoms: _437  and  _438
REMARK  173  A    between atoms: _441  and  _443
REMARK  174  A    between atoms: _443  and  _444
REMARK  175  A    between atoms: _443  and  _446
REMARK  176  A    between atoms: _446  and  _447
REMARK  177  A    between atoms: _453  and  _455
REMARK  178  A    between atoms: _455  and  _456
REMARK  179  A    between atoms: _455  and  _458
REMARK  180  A    between atoms: _458  and  _459
REMARK  181  A    between atoms: _462  and  _464
REMARK  182  A    between atoms: _464  and  _465
REMARK  183  A    between atoms: _464  and  _467
REMARK  184  A    between atoms: _467  and  _468
REMARK  185  A    between atoms: _471  and  _473
REMARK  186  A    between atoms: _473  and  _474
REMARK  187  A    between atoms: _473  and  _476
REMARK  188  A    between atoms: _476  and  _477
REMARK  189  A    between atoms: _480  and  _482
REMARK  190  A    between atoms: _482  and  _483
REMARK  191  A    between atoms: _487  and  _488
REMARK  192  A    between atoms: _493  and  _495
REMARK  193  A    between atoms: _495  and  _496
REMARK  194  A    between atoms: _495  and  _498
REMARK  195  A    between atoms: _498  and  _499
REMARK  196  A    between atoms: _504  and  _506
REMARK  197  A    between atoms: _506  and  _507
REMARK  198  A    between atoms: _506  and  _509
REMARK  199  A    between atoms: _509  and  _510
REMARK  200  A    between atoms: _516  and  _518
REMARK  201  A    between atoms: _518  and  _519
REMARK  202  A    between atoms: _518  and  _521
REMARK  203  A    between atoms: _521  and  _522
REMARK  204  A    between atoms: _522  and  _523
REMARK  205  A    between atoms: _523  and  _524
REMARK  206  A    between atoms: _524  and  _525
REMARK  207  A    between atoms: _529  and  _531
REMARK  208  A    between atoms: _531  and  _532
REMARK  209  A    between atoms: _531  and  _534
REMARK  210  A    between atoms: _534  and  _535
REMARK  211  A    between atoms: _540  and  _542
REMARK  212  A    between atoms: _542  and  _543
REMARK  213  A    between atoms: _542  and  _545
REMARK  214  A    between atoms: _545  and  _546
REMARK  215  A    between atoms: _551  and  _553
REMARK  216  A    between atoms: _553  and  _554
REMARK  217  A    between atoms: _553  and  _556
REMARK  218  A    between atoms: _556  and  _557
REMARK  219  A    between atoms: _559  and  _561
REMARK  220  A    between atoms: _561  and  _562
REMARK  221  A    between atoms: _561  and  _564
REMARK  222  A    between atoms: _564  and  _565
REMARK  223  A    between atoms: _570  and  _572
REMARK  224  A    between atoms: _572  and  _573
REMARK  225  A    between atoms: _572  and  _575
REMARK  226  A    between atoms: _575  and  _576
REMARK  227  A    between atoms: _581  and  _582
REMARK  228  A    between atoms: _584  and  _586
REMARK  229  A    between atoms: _586  and  _587
REMARK  230  A    between atoms: _586  and  _589
REMARK  231  A    between atoms: _589  and  _590
REMARK  232  A    between atoms: _593  and  _595
REMARK  233  A    between atoms: _595  and  _596
REMARK  234  A    between atoms: _598  and  _600
REMARK  235  A    between atoms: _600  and  _601
REMARK  236  A    between atoms: _600  and  _603
REMARK  237  A    between atoms: _603  and  _604
REMARK  238  A    between atoms: _609  and  _611
REMARK  239  A    between atoms: _611  and  _612
REMARK  240  A    between atoms: _611  and  _614
REMARK  241  A    between atoms: _614  and  _615
REMARK  242  A    between atoms: _617  and  _619
REMARK  243  A    between atoms: _619  and  _620
REMARK  244  A    between atoms: _619  and  _622
REMARK  245  A    between atoms: _622  and  _623
REMARK  246  A    between atoms: _626  and  _628
REMARK  247  A    between atoms: _628  and  _629
REMARK  248  A    between atoms: _628  and  _631
REMARK  249  A    between atoms: _631  and  _632
REMARK  250  A    between atoms: _634  and  _636
REMARK  251  A    between atoms: _636  and  _637
REMARK  252  A    between atoms: _636  and  _639
REMARK  253  A    between atoms: _639  and  _640
REMARK  254  A    between atoms: _643  and  _645
REMARK  255  A    between atoms: _645  and  _646
REMARK  256  A    between atoms: _645  and  _648
REMARK  257  A    between atoms: _648  and  _649
REMARK                            x       y       z     vdW  Elec       q    Type
REMARK                         _______ _______ _______ _____ _____    ______ ____
ROOT
ATOM      1  O   HOH     1      15.938 -10.141  14.572  0.00  0.00    +0.000 OA
ENDROOT
TORSDOF 0
REMARK  Name = ../refined-set-2016/1ro7/1ro7_pocket.pdb
REMARK  257 active torsions:
REMARK  status: ('A' for Active; 'I' for Inactive)
REMARK    1  A    between atoms: _1  and  _3
REMARK    2  A    between atoms: _3  and  _4
REMARK    3  A    between atoms: _3  and  _6
REMARK    4  A    between atoms: _6  and  _7
REMARK    5  A    between atoms: _10  and  _12
REMARK    6  A    between atoms: _12  and  _13
REMARK    7  A    between atoms: _16  and  _18
REMARK    8  A    between atoms: _18  and  _19
REMARK    9  A    between atoms: _21  and  _23
REMARK   10  A    between atoms: _23  and  _24
REMARK   11  A    between atoms: _23  and  _26
REMARK   12  A    between atoms: _26  and  _27
REMARK   13  A    between atoms: _32  and  _34
REMARK   14  A    between atoms: _34  and  _35
REMARK   15  A    between atoms: _38  and  _39
REMARK   16  A    between atoms: _44  and  _46
REMARK   17  A    between atoms: _46  and  _47
REMARK   18  A    between atoms: _46  and  _49
REMARK   19  A    between atoms: _49  and  _50
REMARK   20  A    between atoms: _52  and  _54
REMARK   21  A    between atoms: _54  and  _55
REMARK   22  A    between atoms: _54  and  _57
REMARK   23  A    between atoms: _57  and  _58
REMARK   24  A    between atoms: _61  and  _63
REMARK   25  A    between atoms: _63  and  _64
REMARK   26  A    between atoms: _63  and  _66
REMARK   27  A    between atoms: _66  and  _67
REMARK   28  A    between atoms: _67  and  _68
REMARK   29  A    between atoms: _68  and  _69
REMARK   30  A    between atoms: _78  and  _80
REMARK   31  A    between atoms: _80  and  _81
REMARK   32  A    between atoms: _80  and  _83
REMARK   33  A    between atoms: _85  and  _87
REMARK   34  A    between atoms: _87  and  _88
REMARK   35  A    between atoms: _87  and  _90
REMARK   36  A    between atoms: _90  and  _91
REMARK   37  A    between atoms: _96  and  _98
REMARK   38  A    between atoms: _98  and  _99
REMARK   39  A    between atoms: _98  and  _101
REMARK   40  A    between atoms: _101  and  _102
REMARK   41  A    between atoms: _102  and  _103
REMARK   42  A    between atoms: _108  and  _110
REMARK   43  A    between atoms: _110  and  _111
REMARK   44  A    between atoms: _110  and  _113
REMARK   45  A    between atoms: _113  and  _114
REMARK   46  A    between atoms: _120  and  _122
REMARK   47  A    between atoms: _122  and  _123
REMARK   48  A    between atoms: _122  and  _125
REMARK   49  A    between atoms: _125  and  _126
REMARK   50  A    between atoms: _131  and  _132
REMARK   51  A    between atoms: _134  and  _136
REMARK   52  A    between atoms: _136  and  _137
REMARK   53  A    between atoms: _136  and  _139
REMARK   54  A    between atoms: _139  and  _140
REMARK   55  A    between atoms: _146  and  _148
REMARK   56  A    between atoms: _148  and  _149
REMARK   57  A    between atoms: _148  and  _151
REMARK   58  A    between atoms: _151  and  _152
REMARK   59  A    between atoms: _157  and  _158
REMARK   60  A    between atoms: _160  and  _162
REMARK   61  A    between atoms: _162  and  _163
REMARK   62  A    between atoms: _162  and  _165
REMARK   63  A    between atoms: _165  and  _166
REMARK   64  A    between atoms: _172  and  _173
REMARK   65  A    between atoms: _178  and  _180
REMARK   66  A    between atoms: _180  and  _181
REMARK   67  A    between atoms: _180  and  _183
REMARK   68  A    between atoms: _183  and  _184
REMARK   69  A    between atoms: _186  and  _188
REMARK   70  A    between atoms: _188  and  _189
REMARK   71  A    between atoms: _188  and  _191
REMARK   72  A    between atoms: _191  and  _192
REMARK   73  A    between atoms: _195  and  _197
REMARK   74  A    between atoms: _197  and  _198
REMARK   75  A    between atoms: _197  and  _200
REMARK   76  A    between atoms: _200  and  _201
REMARK   77  A    between atoms: _207  and  _209
REMARK   78  A    between atoms: _209  and  _210
REMARK   79  A    between atoms: _209  and  _212
REMARK   80  A    between atoms: _212  and  _213
REMARK   81  A    between atoms: _213  and  _214
REMARK   82  A    between atoms: _219  and  _221
REMARK   83  A    between atoms: _221  and  _222
REMARK   84  A    between atoms: _221  and  _224
REMARK   85  A    between atoms: _224  and  _225
REMARK   86  A    between atoms: _227  and  _229
REMARK   87  A    between atoms: _229  and  _230
REMARK   88  A    between atoms: _229  and  _232
REMARK   89  A    between atoms: _232  and  _233
REMARK   90  A    between atoms: _238  and  _239
REMARK   91  A    between atoms: _241  and  _243
REMARK   92  A    between atoms: _243  and  _244
REMARK   93  A    between atoms: _243  and  _246
REMARK   94  A    between atoms: _246  and  _247
REMARK   95  A    between atoms: _247  and  _248
REMARK   96  A    between atoms: _248  and  _249
REMARK   97  A    between atoms: _258  and  _260
REMARK   98  A    between atoms: _260  and  _261
REMARK   99  A    between atoms: _260  and  _263
REMARK  100  A    between atoms: _263  and  _264
REMARK  101  A    between atoms: _267  and  _269
REMARK  102  A    between atoms: _269  and  _270
REMARK  103  A    between atoms: _269  and  _272
REMARK  104  A    between atoms: _272  and  _273
REMARK  105  A    between atoms: _276  and  _278
REMARK  106  A    between atoms: _278  and  _279
REMARK  107  A    between atoms: _278  and  _281
REMARK  108  A    between atoms: _281  and  _282
REMARK  109  A    between atoms: _284  and  _286
REMARK  110  A    between atoms: _286  and  _287
REMARK  111  A    between atoms: _289  and  _291
REMARK  112  A    between atoms: _291  and  _292
REMARK  113  A    between atoms: _291  and  _294
REMARK  114  A    between atoms: _297  and  _299
REMARK  115  A    between atoms: _299  and  _300
REMARK  116  A    between atoms: _299  and  _302
REMARK  117  A    between atoms: _302  and  _303
REMARK  118  A    between atoms: _308  and  _309
REMARK  119  A    between atoms: _311  and  _313
REMARK  120  A    between atoms: _313  and  _314
REMARK  121  A    between atoms: _313  and  _316
REMARK  122  A    between atoms: _316  and  _317
REMARK  123  A    between atoms: _317  and  _318
REMARK  124  A    between atoms: _320  and  _322
REMARK  125  A    between atoms: _322  and  _323
REMARK  126  A    between atoms: _322  and  _325
REMARK  127  A    between atoms: _325  and  _326
REMARK  128  A    between atoms: _328  and  _330
REMARK  129  A    between atoms: _330  and  _331
REMARK  130  A    between atoms: _333  and  _335
REMARK  131  A    between atoms: _335  and  _336
REMARK  132  A    between atoms: _335  and  _338
REMARK  133  A    between atoms: _338  and  _339
REMARK  134  A    between atoms: _342  and  _344
REMARK  135  A    between atoms: _344  and  _345
REMARK  136  A    between atoms: _344  and  _347
REMARK  137  A    between atoms: _347  and  _348
REMARK  138  A    between atoms: _351  and  _353
REMARK  139  A    between atoms: _353  and  _354
REMARK  140  A    between atoms: _353  and  _356
REMARK  141  A    between atoms: _356  and  _357
REMARK  142  A    between atoms: _363  and  _365
REMARK  143  A    between atoms: _365  and  _366
REMARK  144  A    between atoms: _365  and  _368
REMARK  145  A    between atoms: _368  and  _369
REMARK  146  A    between atoms: _374  and  _375
REMARK  147  A    between atoms: _377  and  _379
REMARK  148  A    between atoms: _379  and  _380
REMARK  149  A    between atoms: _379  and  _382
REMARK  150  A    between atoms: _382  and  _383
REMARK  151  A    between atoms: _383  and  _384
REMARK  152  A    between atoms: _389  and  _391
REMARK  153  A    between atoms: _391  and  _392
REMARK  154  A    between atoms: _391  and  _394
REMARK  155  A    between atoms: _394  and  _395
REMARK  156  A    between atoms: _400  and  _402
REMARK  157  A    between atoms: _402  and  _403
REMARK  158  A    between atoms: _405  and  _407
REMARK  159  A    between atoms: _407  and  _408
REMARK  160  A    between atoms: _407  and  _410
REMARK  161  A    between atoms: _410  and  _411
REMARK  162  A    between atoms: _413  and  _415
REMARK  163  A    between atoms: _415  and  _416
REMARK  164  A    between atoms: _415  and  _418
REMARK  165  A    between atoms: _418  and  _419
REMARK  166  A    between atoms: _421  and  _423
REMARK  167  A    between atoms: _423  and  _424
REMARK  168  A    between atoms: _423  and  _426
REMARK  169  A    between atoms: _426  and  _427
REMARK  170  A    between atoms: _432  and  _433
REMARK  171  A    between atoms: _435  and  _437
REMARK  172  A    between atoms: _437  and  _438
REMARK  173  A    between atoms: _441  and  _443
REMARK  174  A    between atoms: _443  and  _444
REMARK  175  A    between atoms: _443  and  _446
REMARK  176  A    between atoms: _446  and  _447
REMARK  177  A    between atoms: _453  and  _455
REMARK  178  A    between atoms: _455  and  _456
REMARK  179  A    between atoms: _455  and  _458
REMARK  180  A    between atoms: _458  and  _459
REMARK  181  A    between atoms: _462  and  _464
REMARK  182  A    between atoms: _464  and  _465
REMARK  183  A    between atoms: _464  and  _467
REMARK  184  A    between atoms: _467  and  _468
REMARK  185  A    between atoms: _471  and  _473
REMARK  186  A    between atoms: _473  and  _474
REMARK  187  A    between atoms: _473  and  _476
REMARK  188  A    between atoms: _476  and  _477
REMARK  189  A    between atoms: _480  and  _482
REMARK  190  A    between atoms: _482  and  _483
REMARK  191  A    between atoms: _487  and  _488
REMARK  192  A    between atoms: _493  and  _495
REMARK  193  A    between atoms: _495  and  _496
REMARK  194  A    between atoms: _495  and  _498
REMARK  195  A    between atoms: _498  and  _499
REMARK  196  A    between atoms: _504  and  _506
REMARK  197  A    between atoms: _506  and  _507
REMARK  198  A    between atoms: _506  and  _509
REMARK  199  A    between atoms: _509  and  _510
REMARK  200  A    between atoms: _516  and  _518
REMARK  201  A    between atoms: _518  and  _519
REMARK  202  A    between atoms: _518  and  _521
REMARK  203  A    between atoms: _521  and  _522
REMARK  204  A    between atoms: _522  and  _523
REMARK  205  A    between atoms: _523  and  _524
REMARK  206  A    between atoms: _524  and  _525
REMARK  207  A    between atoms: _529  and  _531
REMARK  208  A    between atoms: _531  and  _532
REMARK  209  A    between atoms: _531  and  _534
REMARK  210  A    between atoms: _534  and  _535
REMARK  211  A    between atoms: _540  and  _542
REMARK  212  A    between atoms: _542  and  _543
REMARK  213  A    between atoms: _542  and  _545
REMARK  214  A    between atoms: _545  and  _546
REMARK  215  A    between atoms: _551  and  _553
REMARK  216  A    between atoms: _553  and  _554
REMARK  217  A    between atoms: _553  and  _556
REMARK  218  A    between atoms: _556  and  _557
REMARK  219  A    between atoms: _559  and  _561
REMARK  220  A    between atoms: _561  and  _562
REMARK  221  A    between atoms: _561  and  _564
REMARK  222  A    between atoms: _564  and  _565
REMARK  223  A    between atoms: _570  and  _572
REMARK  224  A    between atoms: _572  and  _573
REMARK  225  A    between atoms: _572  and  _575
REMARK  226  A    between atoms: _575  and  _576
REMARK  227  A    between atoms: _581  and  _582
REMARK  228  A    between atoms: _584  and  _586
REMARK  229  A    between atoms: _586  and  _587
REMARK  230  A    between atoms: _586  and  _589
REMARK  231  A    between atoms: _589  and  _590
REMARK  232  A    between atoms: _593  and  _595
REMARK  233  A    between atoms: _595  and  _596
REMARK  234  A    between atoms: _598  and  _600
REMARK  235  A    between atoms: _600  and  _601
REMARK  236  A    between atoms: _600  and  _603
REMARK  237  A    between atoms: _603  and  _604
REMARK  238  A    between atoms: _609  and  _611
REMARK  239  A    between atoms: _611  and  _612
REMARK  240  A    between atoms: _611  and  _614
REMARK  241  A    between atoms: _614  and  _615
REMARK  242  A    between atoms: _617  and  _619
REMARK  243  A    between atoms: _619  and  _620
REMARK  244  A    between atoms: _619  and  _622
REMARK  245  A    between atoms: _622  and  _623
REMARK  246  A    between atoms: _626  and  _628
REMARK  247  A    between atoms: _628  and  _629
REMARK  248  A    between atoms: _628  and  _631
REMARK  249  A    between atoms: _631  and  _632
REMARK  250  A    between atoms: _634  and  _636
REMARK  251  A    between atoms: _636  and  _637
REMARK  252  A    between atoms: _636  and  _639
REMARK  253  A    between atoms: _639  and  _640
REMARK  254  A    between atoms: _643  and  _645
REMARK  255  A    between atoms: _645  and  _646
REMARK  256  A    between atoms: _645  and  _648
REMARK  257  A    between atoms: _648  and  _649
REMARK                            x       y       z     vdW  Elec       q    Type
REMARK                         _______ _______ _______ _____ _____    ______ ____
ROOT
ATOM      1  O   HOH     1      18.105  -4.447  19.194  0.00  0.00    +0.000 OA
ENDROOT
TORSDOF 0
REMARK  Name = ../refined-set-2016/1ro7/1ro7_pocket.pdb
REMARK  257 active torsions:
REMARK  status: ('A' for Active; 'I' for Inactive)
REMARK    1  A    between atoms: _1  and  _3
REMARK    2  A    between atoms: _3  and  _4
REMARK    3  A    between atoms: _3  and  _6
REMARK    4  A    between atoms: _6  and  _7
REMARK    5  A    between atoms: _10  and  _12
REMARK    6  A    between atoms: _12  and  _13
REMARK    7  A    between atoms: _16  and  _18
REMARK    8  A    between atoms: _18  and  _19
REMARK    9  A    between atoms: _21  and  _23
REMARK   10  A    between atoms: _23  and  _24
REMARK   11  A    between atoms: _23  and  _26
REMARK   12  A    between atoms: _26  and  _27
REMARK   13  A    between atoms: _32  and  _34
REMARK   14  A    between atoms: _34  and  _35
REMARK   15  A    between atoms: _38  and  _39
REMARK   16  A    between atoms: _44  and  _46
REMARK   17  A    between atoms: _46  and  _47
REMARK   18  A    between atoms: _46  and  _49
REMARK   19  A    between atoms: _49  and  _50
REMARK   20  A    between atoms: _52  and  _54
REMARK   21  A    between atoms: _54  and  _55
REMARK   22  A    between atoms: _54  and  _57
REMARK   23  A    between atoms: _57  and  _58
REMARK   24  A    between atoms: _61  and  _63
REMARK   25  A    between atoms: _63  and  _64
REMARK   26  A    between atoms: _63  and  _66
REMARK   27  A    between atoms: _66  and  _67
REMARK   28  A    between atoms: _67  and  _68
REMARK   29  A    between atoms: _68  and  _69
REMARK   30  A    between atoms: _78  and  _80
REMARK   31  A    between atoms: _80  and  _81
REMARK   32  A    between atoms: _80  and  _83
REMARK   33  A    between atoms: _85  and  _87
REMARK   34  A    between atoms: _87  and  _88
REMARK   35  A    between atoms: _87  and  _90
REMARK   36  A    between atoms: _90  and  _91
REMARK   37  A    between atoms: _96  and  _98
REMARK   38  A    between atoms: _98  and  _99
REMARK   39  A    between atoms: _98  and  _101
REMARK   40  A    between atoms: _101  and  _102
REMARK   41  A    between atoms: _102  and  _103
REMARK   42  A    between atoms: _108  and  _110
REMARK   43  A    between atoms: _110  and  _111
REMARK   44  A    between atoms: _110  and  _113
REMARK   45  A    between atoms: _113  and  _114
REMARK   46  A    between atoms: _120  and  _122
REMARK   47  A    between atoms: _122  and  _123
REMARK   48  A    between atoms: _122  and  _125
REMARK   49  A    between atoms: _125  and  _126
REMARK   50  A    between atoms: _131  and  _132
REMARK   51  A    between atoms: _134  and  _136
REMARK   52  A    between atoms: _136  and  _137
REMARK   53  A    between atoms: _136  and  _139
REMARK   54  A    between atoms: _139  and  _140
REMARK   55  A    between atoms: _146  and  _148
REMARK   56  A    between atoms: _148  and  _149
REMARK   57  A    between atoms: _148  and  _151
REMARK   58  A    between atoms: _151  and  _152
REMARK   59  A    between atoms: _157  and  _158
REMARK   60  A    between atoms: _160  and  _162
REMARK   61  A    between atoms: _162  and  _163
REMARK   62  A    between atoms: _162  and  _165
REMARK   63  A    between atoms: _165  and  _166
REMARK   64  A    between atoms: _172  and  _173
REMARK   65  A    between atoms: _178  and  _180
REMARK   66  A    between atoms: _180  and  _181
REMARK   67  A    between atoms: _180  and  _183
REMARK   68  A    between atoms: _183  and  _184
REMARK   69  A    between atoms: _186  and  _188
REMARK   70  A    between atoms: _188  and  _189
REMARK   71  A    between atoms: _188  and  _191
REMARK   72  A    between atoms: _191  and  _192
REMARK   73  A    between atoms: _195  and  _197
REMARK   74  A    between atoms: _197  and  _198
REMARK   75  A    between atoms: _197  and  _200
REMARK   76  A    between atoms: _200  and  _201
REMARK   77  A    between atoms: _207  and  _209
REMARK   78  A    between atoms: _209  and  _210
REMARK   79  A    between atoms: _209  and  _212
REMARK   80  A    between atoms: _212  and  _213
REMARK   81  A    between atoms: _213  and  _214
REMARK   82  A    between atoms: _219  and  _221
REMARK   83  A    between atoms: _221  and  _222
REMARK   84  A    between atoms: _221  and  _224
REMARK   85  A    between atoms: _224  and  _225
REMARK   86  A    between atoms: _227  and  _229
REMARK   87  A    between atoms: _229  and  _230
REMARK   88  A    between atoms: _229  and  _232
REMARK   89  A    between atoms: _232  and  _233
REMARK   90  A    between atoms: _238  and  _239
REMARK   91  A    between atoms: _241  and  _243
REMARK   92  A    between atoms: _243  and  _244
REMARK   93  A    between atoms: _243  and  _246
REMARK   94  A    between atoms: _246  and  _247
REMARK   95  A    between atoms: _247  and  _248
REMARK   96  A    between atoms: _248  and  _249
REMARK   97  A    between atoms: _258  and  _260
REMARK   98  A    between atoms: _260  and  _261
REMARK   99  A    between atoms: _260  and  _263
REMARK  100  A    between atoms: _263  and  _264
REMARK  101  A    between atoms: _267  and  _269
REMARK  102  A    between atoms: _269  and  _270
REMARK  103  A    between atoms: _269  and  _272
REMARK  104  A    between atoms: _272  and  _273
REMARK  105  A    between atoms: _276  and  _278
REMARK  106  A    between atoms: _278  and  _279
REMARK  107  A    between atoms: _278  and  _281
REMARK  108  A    between atoms: _281  and  _282
REMARK  109  A    between atoms: _284  and  _286
REMARK  110  A    between atoms: _286  and  _287
REMARK  111  A    between atoms: _289  and  _291
REMARK  112  A    between atoms: _291  and  _292
REMARK  113  A    between atoms: _291  and  _294
REMARK  114  A    between atoms: _297  and  _299
REMARK  115  A    between atoms: _299  and  _300
REMARK  116  A    between atoms: _299  and  _302
REMARK  117  A    between atoms: _302  and  _303
REMARK  118  A    between atoms: _308  and  _309
REMARK  119  A    between atoms: _311  and  _313
REMARK  120  A    between atoms: _313  and  _314
REMARK  121  A    between atoms: _313  and  _316
REMARK  122  A    between atoms: _316  and  _317
REMARK  123  A    between atoms: _317  and  _318
REMARK  124  A    between atoms: _320  and  _322
REMARK  125  A    between atoms: _322  and  _323
REMARK  126  A    between atoms: _322  and  _325
REMARK  127  A    between atoms: _325  and  _326
REMARK  128  A    between atoms: _328  and  _330
REMARK  129  A    between atoms: _330  and  _331
REMARK  130  A    between atoms: _333  and  _335
REMARK  131  A    between atoms: _335  and  _336
REMARK  132  A    between atoms: _335  and  _338
REMARK  133  A    between atoms: _338  and  _339
REMARK  134  A    between atoms: _342  and  _344
REMARK  135  A    between atoms: _344  and  _345
REMARK  136  A    between atoms: _344  and  _347
REMARK  137  A    between atoms: _347  and  _348
REMARK  138  A    between atoms: _351  and  _353
REMARK  139  A    between atoms: _353  and  _354
REMARK  140  A    between atoms: _353  and  _356
REMARK  141  A    between atoms: _356  and  _357
REMARK  142  A    between atoms: _363  and  _365
REMARK  143  A    between atoms: _365  and  _366
REMARK  144  A    between atoms: _365  and  _368
REMARK  145  A    between atoms: _368  and  _369
REMARK  146  A    between atoms: _374  and  _375
REMARK  147  A    between atoms: _377  and  _379
REMARK  148  A    between atoms: _379  and  _380
REMARK  149  A    between atoms: _379  and  _382
REMARK  150  A    between atoms: _382  and  _383
REMARK  151  A    between atoms: _383  and  _384
REMARK  152  A    between atoms: _389  and  _391
REMARK  153  A    between atoms: _391  and  _392
REMARK  154  A    between atoms: _391  and  _394
REMARK  155  A    between atoms: _394  and  _395
REMARK  156  A    between atoms: _400  and  _402
REMARK  157  A    between atoms: _402  and  _403
REMARK  158  A    between atoms: _405  and  _407
REMARK  159  A    between atoms: _407  and  _408
REMARK  160  A    between atoms: _407  and  _410
REMARK  161  A    between atoms: _410  and  _411
REMARK  162  A    between atoms: _413  and  _415
REMARK  163  A    between atoms: _415  and  _416
REMARK  164  A    between atoms: _415  and  _418
REMARK  165  A    between atoms: _418  and  _419
REMARK  166  A    between atoms: _421  and  _423
REMARK  167  A    between atoms: _423  and  _424
REMARK  168  A    between atoms: _423  and  _426
REMARK  169  A    between atoms: _426  and  _427
REMARK  170  A    between atoms: _432  and  _433
REMARK  171  A    between atoms: _435  and  _437
REMARK  172  A    between atoms: _437  and  _438
REMARK  173  A    between atoms: _441  and  _443
REMARK  174  A    between atoms: _443  and  _444
REMARK  175  A    between atoms: _443  and  _446
REMARK  176  A    between atoms: _446  and  _447
REMARK  177  A    between atoms: _453  and  _455
REMARK  178  A    between atoms: _455  and  _456
REMARK  179  A    between atoms: _455  and  _458
REMARK  180  A    between atoms: _458  and  _459
REMARK  181  A    between atoms: _462  and  _464
REMARK  182  A    between atoms: _464  and  _465
REMARK  183  A    between atoms: _464  and  _467
REMARK  184  A    between atoms: _467  and  _468
REMARK  185  A    between atoms: _471  and  _473
REMARK  186  A    between atoms: _473  and  _474
REMARK  187  A    between atoms: _473  and  _476
REMARK  188  A    between atoms: _476  and  _477
REMARK  189  A    between atoms: _480  and  _482
REMARK  190  A    between atoms: _482  and  _483
REMARK  191  A    between atoms: _487  and  _488
REMARK  192  A    between atoms: _493  and  _495
REMARK  193  A    between atoms: _495  and  _496
REMARK  194  A    between atoms: _495  and  _498
REMARK  195  A    between atoms: _498  and  _499
REMARK  196  A    between atoms: _504  and  _506
REMARK  197  A    between atoms: _506  and  _507
REMARK  198  A    between atoms: _506  and  _509
REMARK  199  A    between atoms: _509  and  _510
REMARK  200  A    between atoms: _516  and  _518
REMARK  201  A    between atoms: _518  and  _519
REMARK  202  A    between atoms: _518  and  _521
REMARK  203  A    between atoms: _521  and  _522
REMARK  204  A    between atoms: _522  and  _523
REMARK  205  A    between atoms: _523  and  _524
REMARK  206  A    between atoms: _524  and  _525
REMARK  207  A    between atoms: _529  and  _531
REMARK  208  A    between atoms: _531  and  _532
REMARK  209  A    between atoms: _531  and  _534
REMARK  210  A    between atoms: _534  and  _535
REMARK  211  A    between atoms: _540  and  _542
REMARK  212  A    between atoms: _542  and  _543
REMARK  213  A    between atoms: _542  and  _545
REMARK  214  A    between atoms: _545  and  _546
REMARK  215  A    between atoms: _551  and  _553
REMARK  216  A    between atoms: _553  and  _554
REMARK  217  A    between atoms: _553  and  _556
REMARK  218  A    between atoms: _556  and  _557
REMARK  219  A    between atoms: _559  and  _561
REMARK  220  A    between atoms: _561  and  _562
REMARK  221  A    between atoms: _561  and  _564
REMARK  222  A    between atoms: _564  and  _565
REMARK  223  A    between atoms: _570  and  _572
REMARK  224  A    between atoms: _572  and  _573
REMARK  225  A    between atoms: _572  and  _575
REMARK  226  A    between atoms: _575  and  _576
REMARK  227  A    between atoms: _581  and  _582
REMARK  228  A    between atoms: _584  and  _586
REMARK  229  A    between atoms: _586  and  _587
REMARK  230  A    between atoms: _586  and  _589
REMARK  231  A    between atoms: _589  and  _590
REMARK  232  A    between atoms: _593  and  _595
REMARK  233  A    between atoms: _595  and  _596
REMARK  234  A    between atoms: _598  and  _600
REMARK  235  A    between atoms: _600  and  _601
REMARK  236  A    between atoms: _600  and  _603
REMARK  237  A    between atoms: _603  and  _604
REMARK  238  A    between atoms: _609  and  _611
REMARK  239  A    between atoms: _611  and  _612
REMARK  240  A    between atoms: _611  and  _614
REMARK  241  A    between atoms: _614  and  _615
REMARK  242  A    between atoms: _617  and  _619
REMARK  243  A    between atoms: _619  and  _620
REMARK  244  A    between atoms: _619  and  _622
REMARK  245  A    between atoms: _622  and  _623
REMARK  246  A    between atoms: _626  and  _628
REMARK  247  A    between atoms: _628  and  _629
REMARK  248  A    between atoms: _628  and  _631
REMARK  249  A    between atoms: _631  and  _632
REMARK  250  A    between atoms: _634  and  _636
REMARK  251  A    between atoms: _636  and  _637
REMARK  252  A    between atoms: _636  and  _639
REMARK  253  A    between atoms: _639  and  _640
REMARK  254  A    between atoms: _643  and  _645
REMARK  255  A    between atoms: _645  and  _646
REMARK  256  A    between atoms: _645  and  _648
REMARK  257  A    between atoms: _648  and  _649
REMARK                            x       y       z     vdW  Elec       q    Type
REMARK                         _______ _______ _______ _____ _____    ______ ____
ROOT
ATOM      1  O   HOH     1      19.935   4.036   9.007  0.00  0.00    +0.000 OA
ENDROOT
TORSDOF 0
REMARK  Name = ../refined-set-2016/1ro7/1ro7_pocket.pdb
REMARK  257 active torsions:
REMARK  status: ('A' for Active; 'I' for Inactive)
REMARK    1  A    between atoms: _1  and  _3
REMARK    2  A    between atoms: _3  and  _4
REMARK    3  A    between atoms: _3  and  _6
REMARK    4  A    between atoms: _6  and  _7
REMARK    5  A    between atoms: _10  and  _12
REMARK    6  A    between atoms: _12  and  _13
REMARK    7  A    between atoms: _16  and  _18
REMARK    8  A    between atoms: _18  and  _19
REMARK    9  A    between atoms: _21  and  _23
REMARK   10  A    between atoms: _23  and  _24
REMARK   11  A    between atoms: _23  and  _26
REMARK   12  A    between atoms: _26  and  _27
REMARK   13  A    between atoms: _32  and  _34
REMARK   14  A    between atoms: _34  and  _35
REMARK   15  A    between atoms: _38  and  _39
REMARK   16  A    between atoms: _44  and  _46
REMARK   17  A    between atoms: _46  and  _47
REMARK   18  A    between atoms: _46  and  _49
REMARK   19  A    between atoms: _49  and  _50
REMARK   20  A    between atoms: _52  and  _54
REMARK   21  A    between atoms: _54  and  _55
REMARK   22  A    between atoms: _54  and  _57
REMARK   23  A    between atoms: _57  and  _58
REMARK   24  A    between atoms: _61  and  _63
REMARK   25  A    between atoms: _63  and  _64
REMARK   26  A    between atoms: _63  and  _66
REMARK   27  A    between atoms: _66  and  _67
REMARK   28  A    between atoms: _67  and  _68
REMARK   29  A    between atoms: _68  and  _69
REMARK   30  A    between atoms: _78  and  _80
REMARK   31  A    between atoms: _80  and  _81
REMARK   32  A    between atoms: _80  and  _83
REMARK   33  A    between atoms: _85  and  _87
REMARK   34  A    between atoms: _87  and  _88
REMARK   35  A    between atoms: _87  and  _90
REMARK   36  A    between atoms: _90  and  _91
REMARK   37  A    between atoms: _96  and  _98
REMARK   38  A    between atoms: _98  and  _99
REMARK   39  A    between atoms: _98  and  _101
REMARK   40  A    between atoms: _101  and  _102
REMARK   41  A    between atoms: _102  and  _103
REMARK   42  A    between atoms: _108  and  _110
REMARK   43  A    between atoms: _110  and  _111
REMARK   44  A    between atoms: _110  and  _113
REMARK   45  A    between atoms: _113  and  _114
REMARK   46  A    between atoms: _120  and  _122
REMARK   47  A    between atoms: _122  and  _123
REMARK   48  A    between atoms: _122  and  _125
REMARK   49  A    between atoms: _125  and  _126
REMARK   50  A    between atoms: _131  and  _132
REMARK   51  A    between atoms: _134  and  _136
REMARK   52  A    between atoms: _136  and  _137
REMARK   53  A    between atoms: _136  and  _139
REMARK   54  A    between atoms: _139  and  _140
REMARK   55  A    between atoms: _146  and  _148
REMARK   56  A    between atoms: _148  and  _149
REMARK   57  A    between atoms: _148  and  _151
REMARK   58  A    between atoms: _151  and  _152
REMARK   59  A    between atoms: _157  and  _158
REMARK   60  A    between atoms: _160  and  _162
REMARK   61  A    between atoms: _162  and  _163
REMARK   62  A    between atoms: _162  and  _165
REMARK   63  A    between atoms: _165  and  _166
REMARK   64  A    between atoms: _172  and  _173
REMARK   65  A    between atoms: _178  and  _180
REMARK   66  A    between atoms: _180  and  _181
REMARK   67  A    between atoms: _180  and  _183
REMARK   68  A    between atoms: _183  and  _184
REMARK   69  A    between atoms: _186  and  _188
REMARK   70  A    between atoms: _188  and  _189
REMARK   71  A    between atoms: _188  and  _191
REMARK   72  A    between atoms: _191  and  _192
REMARK   73  A    between atoms: _195  and  _197
REMARK   74  A    between atoms: _197  and  _198
REMARK   75  A    between atoms: _197  and  _200
REMARK   76  A    between atoms: _200  and  _201
REMARK   77  A    between atoms: _207  and  _209
REMARK   78  A    between atoms: _209  and  _210
REMARK   79  A    between atoms: _209  and  _212
REMARK   80  A    between atoms: _212  and  _213
REMARK   81  A    between atoms: _213  and  _214
REMARK   82  A    between atoms: _219  and  _221
REMARK   83  A    between atoms: _221  and  _222
REMARK   84  A    between atoms: _221  and  _224
REMARK   85  A    between atoms: _224  and  _225
REMARK   86  A    between atoms: _227  and  _229
REMARK   87  A    between atoms: _229  and  _230
REMARK   88  A    between atoms: _229  and  _232
REMARK   89  A    between atoms: _232  and  _233
REMARK   90  A    between atoms: _238  and  _239
REMARK   91  A    between atoms: _241  and  _243
REMARK   92  A    between atoms: _243  and  _244
REMARK   93  A    between atoms: _243  and  _246
REMARK   94  A    between atoms: _246  and  _247
REMARK   95  A    between atoms: _247  and  _248
REMARK   96  A    between atoms: _248  and  _249
REMARK   97  A    between atoms: _258  and  _260
REMARK   98  A    between atoms: _260  and  _261
REMARK   99  A    between atoms: _260  and  _263
REMARK  100  A    between atoms: _263  and  _264
REMARK  101  A    between atoms: _267  and  _269
REMARK  102  A    between atoms: _269  and  _270
REMARK  103  A    between atoms: _269  and  _272
REMARK  104  A    between atoms: _272  and  _273
REMARK  105  A    between atoms: _276  and  _278
REMARK  106  A    between atoms: _278  and  _279
REMARK  107  A    between atoms: _278  and  _281
REMARK  108  A    between atoms: _281  and  _282
REMARK  109  A    between atoms: _284  and  _286
REMARK  110  A    between atoms: _286  and  _287
REMARK  111  A    between atoms: _289  and  _291
REMARK  112  A    between atoms: _291  and  _292
REMARK  113  A    between atoms: _291  and  _294
REMARK  114  A    between atoms: _297  and  _299
REMARK  115  A    between atoms: _299  and  _300
REMARK  116  A    between atoms: _299  and  _302
REMARK  117  A    between atoms: _302  and  _303
REMARK  118  A    between atoms: _308  and  _309
REMARK  119  A    between atoms: _311  and  _313
REMARK  120  A    between atoms: _313  and  _314
REMARK  121  A    between atoms: _313  and  _316
REMARK  122  A    between atoms: _316  and  _317
REMARK  123  A    between atoms: _317  and  _318
REMARK  124  A    between atoms: _320  and  _322
REMARK  125  A    between atoms: _322  and  _323
REMARK  126  A    between atoms: _322  and  _325
REMARK  127  A    between atoms: _325  and  _326
REMARK  128  A    between atoms: _328  and  _330
REMARK  129  A    between atoms: _330  and  _331
REMARK  130  A    between atoms: _333  and  _335
REMARK  131  A    between atoms: _335  and  _336
REMARK  132  A    between atoms: _335  and  _338
REMARK  133  A    between atoms: _338  and  _339
REMARK  134  A    between atoms: _342  and  _344
REMARK  135  A    between atoms: _344  and  _345
REMARK  136  A    between atoms: _344  and  _347
REMARK  137  A    between atoms: _347  and  _348
REMARK  138  A    between atoms: _351  and  _353
REMARK  139  A    between atoms: _353  and  _354
REMARK  140  A    between atoms: _353  and  _356
REMARK  141  A    between atoms: _356  and  _357
REMARK  142  A    between atoms: _363  and  _365
REMARK  143  A    between atoms: _365  and  _366
REMARK  144  A    between atoms: _365  and  _368
REMARK  145  A    between atoms: _368  and  _369
REMARK  146  A    between atoms: _374  and  _375
REMARK  147  A    between atoms: _377  and  _379
REMARK  148  A    between atoms: _379  and  _380
REMARK  149  A    between atoms: _379  and  _382
REMARK  150  A    between atoms: _382  and  _383
REMARK  151  A    between atoms: _383  and  _384
REMARK  152  A    between atoms: _389  and  _391
REMARK  153  A    between atoms: _391  and  _392
REMARK  154  A    between atoms: _391  and  _394
REMARK  155  A    between atoms: _394  and  _395
REMARK  156  A    between atoms: _400  and  _402
REMARK  157  A    between atoms: _402  and  _403
REMARK  158  A    between atoms: _405  and  _407
REMARK  159  A    between atoms: _407  and  _408
REMARK  160  A    between atoms: _407  and  _410
REMARK  161  A    between atoms: _410  and  _411
REMARK  162  A    between atoms: _413  and  _415
REMARK  163  A    between atoms: _415  and  _416
REMARK  164  A    between atoms: _415  and  _418
REMARK  165  A    between atoms: _418  and  _419
REMARK  166  A    between atoms: _421  and  _423
REMARK  167  A    between atoms: _423  and  _424
REMARK  168  A    between atoms: _423  and  _426
REMARK  169  A    between atoms: _426  and  _427
REMARK  170  A    between atoms: _432  and  _433
REMARK  171  A    between atoms: _435  and  _437
REMARK  172  A    between atoms: _437  and  _438
REMARK  173  A    between atoms: _441  and  _443
REMARK  174  A    between atoms: _443  and  _444
REMARK  175  A    between atoms: _443  and  _446
REMARK  176  A    between atoms: _446  and  _447
REMARK  177  A    between atoms: _453  and  _455
REMARK  178  A    between atoms: _455  and  _456
REMARK  179  A    between atoms: _455  and  _458
REMARK  180  A    between atoms: _458  and  _459
REMARK  181  A    between atoms: _462  and  _464
REMARK  182  A    between atoms: _464  and  _465
REMARK  183  A    between atoms: _464  and  _467
REMARK  184  A    between atoms: _467  and  _468
REMARK  185  A    between atoms: _471  and  _473
REMARK  186  A    between atoms: _473  and  _474
REMARK  187  A    between atoms: _473  and  _476
REMARK  188  A    between atoms: _476  and  _477
REMARK  189  A    between atoms: _480  and  _482
REMARK  190  A    between atoms: _482  and  _483
REMARK  191  A    between atoms: _487  and  _488
REMARK  192  A    between atoms: _493  and  _495
REMARK  193  A    between atoms: _495  and  _496
REMARK  194  A    between atoms: _495  and  _498
REMARK  195  A    between atoms: _498  and  _499
REMARK  196  A    between atoms: _504  and  _506
REMARK  197  A    between atoms: _506  and  _507
REMARK  198  A    between atoms: _506  and  _509
REMARK  199  A    between atoms: _509  and  _510
REMARK  200  A    between atoms: _516  and  _518
REMARK  201  A    between atoms: _518  and  _519
REMARK  202  A    between atoms: _518  and  _521
REMARK  203  A    between atoms: _521  and  _522
REMARK  204  A    between atoms: _522  and  _523
REMARK  205  A    between atoms: _523  and  _524
REMARK  206  A    between atoms: _524  and  _525
REMARK  207  A    between atoms: _529  and  _531
REMARK  208  A    between atoms: _531  and  _532
REMARK  209  A    between atoms: _531  and  _534
REMARK  210  A    between atoms: _534  and  _535
REMARK  211  A    between atoms: _540  and  _542
REMARK  212  A    between atoms: _542  and  _543
REMARK  213  A    between atoms: _542  and  _545
REMARK  214  A    between atoms: _545  and  _546
REMARK  215  A    between atoms: _551  and  _553
REMARK  216  A    between atoms: _553  and  _554
REMARK  217  A    between atoms: _553  and  _556
REMARK  218  A    between atoms: _556  and  _557
REMARK  219  A    between atoms: _559  and  _561
REMARK  220  A    between atoms: _561  and  _562
REMARK  221  A    between atoms: _561  and  _564
REMARK  222  A    between atoms: _564  and  _565
REMARK  223  A    between atoms: _570  and  _572
REMARK  224  A    between atoms: _572  and  _573
REMARK  225  A    between atoms: _572  and  _575
REMARK  226  A    between atoms: _575  and  _576
REMARK  227  A    between atoms: _581  and  _582
REMARK  228  A    between atoms: _584  and  _586
REMARK  229  A    between atoms: _586  and  _587
REMARK  230  A    between atoms: _586  and  _589
REMARK  231  A    between atoms: _589  and  _590
REMARK  232  A    between atoms: _593  and  _595
REMARK  233  A    between atoms: _595  and  _596
REMARK  234  A    between atoms: _598  and  _600
REMARK  235  A    between atoms: _600  and  _601
REMARK  236  A    between atoms: _600  and  _603
REMARK  237  A    between atoms: _603  and  _604
REMARK  238  A    between atoms: _609  and  _611
REMARK  239  A    between atoms: _611  and  _612
REMARK  240  A    between atoms: _611  and  _614
REMARK  241  A    between atoms: _614  and  _615
REMARK  242  A    between atoms: _617  and  _619
REMARK  243  A    between atoms: _619  and  _620
REMARK  244  A    between atoms: _619  and  _622
REMARK  245  A    between atoms: _622  and  _623
REMARK  246  A    between atoms: _626  and  _628
REMARK  247  A    between atoms: _628  and  _629
REMARK  248  A    between atoms: _628  and  _631
REMARK  249  A    between atoms: _631  and  _632
REMARK  250  A    between atoms: _634  and  _636
REMARK  251  A    between atoms: _636  and  _637
REMARK  252  A    between atoms: _636  and  _639
REMARK  253  A    between atoms: _639  and  _640
REMARK  254  A    between atoms: _643  and  _645
REMARK  255  A    between atoms: _645  and  _646
REMARK  256  A    between atoms: _645  and  _648
REMARK  257  A    between atoms: _648  and  _649
REMARK                            x       y       z     vdW  Elec       q    Type
REMARK                         _______ _______ _______ _____ _____    ______ ____
ROOT
ATOM      1  O   HOH     1      14.920  -3.030  15.199  0.00  0.00    +0.000 OA
ENDROOT
TORSDOF 0
REMARK  Name = ../refined-set-2016/1ro7/1ro7_pocket.pdb
REMARK  257 active torsions:
REMARK  status: ('A' for Active; 'I' for Inactive)
REMARK    1  A    between atoms: _1  and  _3
REMARK    2  A    between atoms: _3  and  _4
REMARK    3  A    between atoms: _3  and  _6
REMARK    4  A    between atoms: _6  and  _7
REMARK    5  A    between atoms: _10  and  _12
REMARK    6  A    between atoms: _12  and  _13
REMARK    7  A    between atoms: _16  and  _18
REMARK    8  A    between atoms: _18  and  _19
REMARK    9  A    between atoms: _21  and  _23
REMARK   10  A    between atoms: _23  and  _24
REMARK   11  A    between atoms: _23  and  _26
REMARK   12  A    between atoms: _26  and  _27
REMARK   13  A    between atoms: _32  and  _34
REMARK   14  A    between atoms: _34  and  _35
REMARK   15  A    between atoms: _38  and  _39
REMARK   16  A    between atoms: _44  and  _46
REMARK   17  A    between atoms: _46  and  _47
REMARK   18  A    between atoms: _46  and  _49
REMARK   19  A    between atoms: _49  and  _50
REMARK   20  A    between atoms: _52  and  _54
REMARK   21  A    between atoms: _54  and  _55
REMARK   22  A    between atoms: _54  and  _57
REMARK   23  A    between atoms: _57  and  _58
REMARK   24  A    between atoms: _61  and  _63
REMARK   25  A    between atoms: _63  and  _64
REMARK   26  A    between atoms: _63  and  _66
REMARK   27  A    between atoms: _66  and  _67
REMARK   28  A    between atoms: _67  and  _68
REMARK   29  A    between atoms: _68  and  _69
REMARK   30  A    between atoms: _78  and  _80
REMARK   31  A    between atoms: _80  and  _81
REMARK   32  A    between atoms: _80  and  _83
REMARK   33  A    between atoms: _85  and  _87
REMARK   34  A    between atoms: _87  and  _88
REMARK   35  A    between atoms: _87  and  _90
REMARK   36  A    between atoms: _90  and  _91
REMARK   37  A    between atoms: _96  and  _98
REMARK   38  A    between atoms: _98  and  _99
REMARK   39  A    between atoms: _98  and  _101
REMARK   40  A    between atoms: _101  and  _102
REMARK   41  A    between atoms: _102  and  _103
REMARK   42  A    between atoms: _108  and  _110
REMARK   43  A    between atoms: _110  and  _111
REMARK   44  A    between atoms: _110  and  _113
REMARK   45  A    between atoms: _113  and  _114
REMARK   46  A    between atoms: _120  and  _122
REMARK   47  A    between atoms: _122  and  _123
REMARK   48  A    between atoms: _122  and  _125
REMARK   49  A    between atoms: _125  and  _126
REMARK   50  A    between atoms: _131  and  _132
REMARK   51  A    between atoms: _134  and  _136
REMARK   52  A    between atoms: _136  and  _137
REMARK   53  A    between atoms: _136  and  _139
REMARK   54  A    between atoms: _139  and  _140
REMARK   55  A    between atoms: _146  and  _148
REMARK   56  A    between atoms: _148  and  _149
REMARK   57  A    between atoms: _148  and  _151
REMARK   58  A    between atoms: _151  and  _152
REMARK   59  A    between atoms: _157  and  _158
REMARK   60  A    between atoms: _160  and  _162
REMARK   61  A    between atoms: _162  and  _163
REMARK   62  A    between atoms: _162  and  _165
REMARK   63  A    between atoms: _165  and  _166
REMARK   64  A    between atoms: _172  and  _173
REMARK   65  A    between atoms: _178  and  _180
REMARK   66  A    between atoms: _180  and  _181
REMARK   67  A    between atoms: _180  and  _183
REMARK   68  A    between atoms: _183  and  _184
REMARK   69  A    between atoms: _186  and  _188
REMARK   70  A    between atoms: _188  and  _189
REMARK   71  A    between atoms: _188  and  _191
REMARK   72  A    between atoms: _191  and  _192
REMARK   73  A    between atoms: _195  and  _197
REMARK   74  A    between atoms: _197  and  _198
REMARK   75  A    between atoms: _197  and  _200
REMARK   76  A    between atoms: _200  and  _201
REMARK   77  A    between atoms: _207  and  _209
REMARK   78  A    between atoms: _209  and  _210
REMARK   79  A    between atoms: _209  and  _212
REMARK   80  A    between atoms: _212  and  _213
REMARK   81  A    between atoms: _213  and  _214
REMARK   82  A    between atoms: _219  and  _221
REMARK   83  A    between atoms: _221  and  _222
REMARK   84  A    between atoms: _221  and  _224
REMARK   85  A    between atoms: _224  and  _225
REMARK   86  A    between atoms: _227  and  _229
REMARK   87  A    between atoms: _229  and  _230
REMARK   88  A    between atoms: _229  and  _232
REMARK   89  A    between atoms: _232  and  _233
REMARK   90  A    between atoms: _238  and  _239
REMARK   91  A    between atoms: _241  and  _243
REMARK   92  A    between atoms: _243  and  _244
REMARK   93  A    between atoms: _243  and  _246
REMARK   94  A    between atoms: _246  and  _247
REMARK   95  A    between atoms: _247  and  _248
REMARK   96  A    between atoms: _248  and  _249
REMARK   97  A    between atoms: _258  and  _260
REMARK   98  A    between atoms: _260  and  _261
REMARK   99  A    between atoms: _260  and  _263
REMARK  100  A    between atoms: _263  and  _264
REMARK  101  A    between atoms: _267  and  _269
REMARK  102  A    between atoms: _269  and  _270
REMARK  103  A    between atoms: _269  and  _272
REMARK  104  A    between atoms: _272  and  _273
REMARK  105  A    between atoms: _276  and  _278
REMARK  106  A    between atoms: _278  and  _279
REMARK  107  A    between atoms: _278  and  _281
REMARK  108  A    between atoms: _281  and  _282
REMARK  109  A    between atoms: _284  and  _286
REMARK  110  A    between atoms: _286  and  _287
REMARK  111  A    between atoms: _289  and  _291
REMARK  112  A    between atoms: _291  and  _292
REMARK  113  A    between atoms: _291  and  _294
REMARK  114  A    between atoms: _297  and  _299
REMARK  115  A    between atoms: _299  and  _300
REMARK  116  A    between atoms: _299  and  _302
REMARK  117  A    between atoms: _302  and  _303
REMARK  118  A    between atoms: _308  and  _309
REMARK  119  A    between atoms: _311  and  _313
REMARK  120  A    between atoms: _313  and  _314
REMARK  121  A    between atoms: _313  and  _316
REMARK  122  A    between atoms: _316  and  _317
REMARK  123  A    between atoms: _317  and  _318
REMARK  124  A    between atoms: _320  and  _322
REMARK  125  A    between atoms: _322  and  _323
REMARK  126  A    between atoms: _322  and  _325
REMARK  127  A    between atoms: _325  and  _326
REMARK  128  A    between atoms: _328  and  _330
REMARK  129  A    between atoms: _330  and  _331
REMARK  130  A    between atoms: _333  and  _335
REMARK  131  A    between atoms: _335  and  _336
REMARK  132  A    between atoms: _335  and  _338
REMARK  133  A    between atoms: _338  and  _339
REMARK  134  A    between atoms: _342  and  _344
REMARK  135  A    between atoms: _344  and  _345
REMARK  136  A    between atoms: _344  and  _347
REMARK  137  A    between atoms: _347  and  _348
REMARK  138  A    between atoms: _351  and  _353
REMARK  139  A    between atoms: _353  and  _354
REMARK  140  A    between atoms: _353  and  _356
REMARK  141  A    between atoms: _356  and  _357
REMARK  142  A    between atoms: _363  and  _365
REMARK  143  A    between atoms: _365  and  _366
REMARK  144  A    between atoms: _365  and  _368
REMARK  145  A    between atoms: _368  and  _369
REMARK  146  A    between atoms: _374  and  _375
REMARK  147  A    between atoms: _377  and  _379
REMARK  148  A    between atoms: _379  and  _380
REMARK  149  A    between atoms: _379  and  _382
REMARK  150  A    between atoms: _382  and  _383
REMARK  151  A    between atoms: _383  and  _384
REMARK  152  A    between atoms: _389  and  _391
REMARK  153  A    between atoms: _391  and  _392
REMARK  154  A    between atoms: _391  and  _394
REMARK  155  A    between atoms: _394  and  _395
REMARK  156  A    between atoms: _400  and  _402
REMARK  157  A    between atoms: _402  and  _403
REMARK  158  A    between atoms: _405  and  _407
REMARK  159  A    between atoms: _407  and  _408
REMARK  160  A    between atoms: _407  and  _410
REMARK  161  A    between atoms: _410  and  _411
REMARK  162  A    between atoms: _413  and  _415
REMARK  163  A    between atoms: _415  and  _416
REMARK  164  A    between atoms: _415  and  _418
REMARK  165  A    between atoms: _418  and  _419
REMARK  166  A    between atoms: _421  and  _423
REMARK  167  A    between atoms: _423  and  _424
REMARK  168  A    between atoms: _423  and  _426
REMARK  169  A    between atoms: _426  and  _427
REMARK  170  A    between atoms: _432  and  _433
REMARK  171  A    between atoms: _435  and  _437
REMARK  172  A    between atoms: _437  and  _438
REMARK  173  A    between atoms: _441  and  _443
REMARK  174  A    between atoms: _443  and  _444
REMARK  175  A    between atoms: _443  and  _446
REMARK  176  A    between atoms: _446  and  _447
REMARK  177  A    between atoms: _453  and  _455
REMARK  178  A    between atoms: _455  and  _456
REMARK  179  A    between atoms: _455  and  _458
REMARK  180  A    between atoms: _458  and  _459
REMARK  181  A    between atoms: _462  and  _464
REMARK  182  A    between atoms: _464  and  _465
REMARK  183  A    between atoms: _464  and  _467
REMARK  184  A    between atoms: _467  and  _468
REMARK  185  A    between atoms: _471  and  _473
REMARK  186  A    between atoms: _473  and  _474
REMARK  187  A    between atoms: _473  and  _476
REMARK  188  A    between atoms: _476  and  _477
REMARK  189  A    between atoms: _480  and  _482
REMARK  190  A    between atoms: _482  and  _483
REMARK  191  A    between atoms: _487  and  _488
REMARK  192  A    between atoms: _493  and  _495
REMARK  193  A    between atoms: _495  and  _496
REMARK  194  A    between atoms: _495  and  _498
REMARK  195  A    between atoms: _498  and  _499
REMARK  196  A    between atoms: _504  and  _506
REMARK  197  A    between atoms: _506  and  _507
REMARK  198  A    between atoms: _506  and  _509
REMARK  199  A    between atoms: _509  and  _510
REMARK  200  A    between atoms: _516  and  _518
REMARK  201  A    between atoms: _518  and  _519
REMARK  202  A    between atoms: _518  and  _521
REMARK  203  A    between atoms: _521  and  _522
REMARK  204  A    between atoms: _522  and  _523
REMARK  205  A    between atoms: _523  and  _524
REMARK  206  A    between atoms: _524  and  _525
REMARK  207  A    between atoms: _529  and  _531
REMARK  208  A    between atoms: _531  and  _532
REMARK  209  A    between atoms: _531  and  _534
REMARK  210  A    between atoms: _534  and  _535
REMARK  211  A    between atoms: _540  and  _542
REMARK  212  A    between atoms: _542  and  _543
REMARK  213  A    between atoms: _542  and  _545
REMARK  214  A    between atoms: _545  and  _546
REMARK  215  A    between atoms: _551  and  _553
REMARK  216  A    between atoms: _553  and  _554
REMARK  217  A    between atoms: _553  and  _556
REMARK  218  A    between atoms: _556  and  _557
REMARK  219  A    between atoms: _559  and  _561
REMARK  220  A    between atoms: _561  and  _562
REMARK  221  A    between atoms: _561  and  _564
REMARK  222  A    between atoms: _564  and  _565
REMARK  223  A    between atoms: _570  and  _572
REMARK  224  A    between atoms: _572  and  _573
REMARK  225  A    between atoms: _572  and  _575
REMARK  226  A    between atoms: _575  and  _576
REMARK  227  A    between atoms: _581  and  _582
REMARK  228  A    between atoms: _584  and  _586
REMARK  229  A    between atoms: _586  and  _587
REMARK  230  A    between atoms: _586  and  _589
REMARK  231  A    between atoms: _589  and  _590
REMARK  232  A    between atoms: _593  and  _595
REMARK  233  A    between atoms: _595  and  _596
REMARK  234  A    between atoms: _598  and  _600
REMARK  235  A    between atoms: _600  and  _601
REMARK  236  A    between atoms: _600  and  _603
REMARK  237  A    between atoms: _603  and  _604
REMARK  238  A    between atoms: _609  and  _611
REMARK  239  A    between atoms: _611  and  _612
REMARK  240  A    between atoms: _611  and  _614
REMARK  241  A    between atoms: _614  and  _615
REMARK  242  A    between atoms: _617  and  _619
REMARK  243  A    between atoms: _619  and  _620
REMARK  244  A    between atoms: _619  and  _622
REMARK  245  A    between atoms: _622  and  _623
REMARK  246  A    between atoms: _626  and  _628
REMARK  247  A    between atoms: _628  and  _629
REMARK  248  A    between atoms: _628  and  _631
REMARK  249  A    between atoms: _631  and  _632
REMARK  250  A    between atoms: _634  and  _636
REMARK  251  A    between atoms: _636  and  _637
REMARK  252  A    between atoms: _636  and  _639
REMARK  253  A    between atoms: _639  and  _640
REMARK  254  A    between atoms: _643  and  _645
REMARK  255  A    between atoms: _645  and  _646
REMARK  256  A    between atoms: _645  and  _648
REMARK  257  A    between atoms: _648  and  _649
REMARK                            x       y       z     vdW  Elec       q    Type
REMARK                         _______ _______ _______ _____ _____    ______ ____
ROOT
ATOM      1  O   HOH     1      14.840  -5.670  15.907  0.00  0.00    +0.000 OA
ENDROOT
TORSDOF 0
REMARK  Name = ../refined-set-2016/1ro7/1ro7_pocket.pdb
REMARK  257 active torsions:
REMARK  status: ('A' for Active; 'I' for Inactive)
REMARK    1  A    between atoms: _1  and  _3
REMARK    2  A    between atoms: _3  and  _4
REMARK    3  A    between atoms: _3  and  _6
REMARK    4  A    between atoms: _6  and  _7
REMARK    5  A    between atoms: _10  and  _12
REMARK    6  A    between atoms: _12  and  _13
REMARK    7  A    between atoms: _16  and  _18
REMARK    8  A    between atoms: _18  and  _19
REMARK    9  A    between atoms: _21  and  _23
REMARK   10  A    between atoms: _23  and  _24
REMARK   11  A    between atoms: _23  and  _26
REMARK   12  A    between atoms: _26  and  _27
REMARK   13  A    between atoms: _32  and  _34
REMARK   14  A    between atoms: _34  and  _35
REMARK   15  A    between atoms: _38  and  _39
REMARK   16  A    between atoms: _44  and  _46
REMARK   17  A    between atoms: _46  and  _47
REMARK   18  A    between atoms: _46  and  _49
REMARK   19  A    between atoms: _49  and  _50
REMARK   20  A    between atoms: _52  and  _54
REMARK   21  A    between atoms: _54  and  _55
REMARK   22  A    between atoms: _54  and  _57
REMARK   23  A    between atoms: _57  and  _58
REMARK   24  A    between atoms: _61  and  _63
REMARK   25  A    between atoms: _63  and  _64
REMARK   26  A    between atoms: _63  and  _66
REMARK   27  A    between atoms: _66  and  _67
REMARK   28  A    between atoms: _67  and  _68
REMARK   29  A    between atoms: _68  and  _69
REMARK   30  A    between atoms: _78  and  _80
REMARK   31  A    between atoms: _80  and  _81
REMARK   32  A    between atoms: _80  and  _83
REMARK   33  A    between atoms: _85  and  _87
REMARK   34  A    between atoms: _87  and  _88
REMARK   35  A    between atoms: _87  and  _90
REMARK   36  A    between atoms: _90  and  _91
REMARK   37  A    between atoms: _96  and  _98
REMARK   38  A    between atoms: _98  and  _99
REMARK   39  A    between atoms: _98  and  _101
REMARK   40  A    between atoms: _101  and  _102
REMARK   41  A    between atoms: _102  and  _103
REMARK   42  A    between atoms: _108  and  _110
REMARK   43  A    between atoms: _110  and  _111
REMARK   44  A    between atoms: _110  and  _113
REMARK   45  A    between atoms: _113  and  _114
REMARK   46  A    between atoms: _120  and  _122
REMARK   47  A    between atoms: _122  and  _123
REMARK   48  A    between atoms: _122  and  _125
REMARK   49  A    between atoms: _125  and  _126
REMARK   50  A    between atoms: _131  and  _132
REMARK   51  A    between atoms: _134  and  _136
REMARK   52  A    between atoms: _136  and  _137
REMARK   53  A    between atoms: _136  and  _139
REMARK   54  A    between atoms: _139  and  _140
REMARK   55  A    between atoms: _146  and  _148
REMARK   56  A    between atoms: _148  and  _149
REMARK   57  A    between atoms: _148  and  _151
REMARK   58  A    between atoms: _151  and  _152
REMARK   59  A    between atoms: _157  and  _158
REMARK   60  A    between atoms: _160  and  _162
REMARK   61  A    between atoms: _162  and  _163
REMARK   62  A    between atoms: _162  and  _165
REMARK   63  A    between atoms: _165  and  _166
REMARK   64  A    between atoms: _172  and  _173
REMARK   65  A    between atoms: _178  and  _180
REMARK   66  A    between atoms: _180  and  _181
REMARK   67  A    between atoms: _180  and  _183
REMARK   68  A    between atoms: _183  and  _184
REMARK   69  A    between atoms: _186  and  _188
REMARK   70  A    between atoms: _188  and  _189
REMARK   71  A    between atoms: _188  and  _191
REMARK   72  A    between atoms: _191  and  _192
REMARK   73  A    between atoms: _195  and  _197
REMARK   74  A    between atoms: _197  and  _198
REMARK   75  A    between atoms: _197  and  _200
REMARK   76  A    between atoms: _200  and  _201
REMARK   77  A    between atoms: _207  and  _209
REMARK   78  A    between atoms: _209  and  _210
REMARK   79  A    between atoms: _209  and  _212
REMARK   80  A    between atoms: _212  and  _213
REMARK   81  A    between atoms: _213  and  _214
REMARK   82  A    between atoms: _219  and  _221
REMARK   83  A    between atoms: _221  and  _222
REMARK   84  A    between atoms: _221  and  _224
REMARK   85  A    between atoms: _224  and  _225
REMARK   86  A    between atoms: _227  and  _229
REMARK   87  A    between atoms: _229  and  _230
REMARK   88  A    between atoms: _229  and  _232
REMARK   89  A    between atoms: _232  and  _233
REMARK   90  A    between atoms: _238  and  _239
REMARK   91  A    between atoms: _241  and  _243
REMARK   92  A    between atoms: _243  and  _244
REMARK   93  A    between atoms: _243  and  _246
REMARK   94  A    between atoms: _246  and  _247
REMARK   95  A    between atoms: _247  and  _248
REMARK   96  A    between atoms: _248  and  _249
REMARK   97  A    between atoms: _258  and  _260
REMARK   98  A    between atoms: _260  and  _261
REMARK   99  A    between atoms: _260  and  _263
REMARK  100  A    between atoms: _263  and  _264
REMARK  101  A    between atoms: _267  and  _269
REMARK  102  A    between atoms: _269  and  _270
REMARK  103  A    between atoms: _269  and  _272
REMARK  104  A    between atoms: _272  and  _273
REMARK  105  A    between atoms: _276  and  _278
REMARK  106  A    between atoms: _278  and  _279
REMARK  107  A    between atoms: _278  and  _281
REMARK  108  A    between atoms: _281  and  _282
REMARK  109  A    between atoms: _284  and  _286
REMARK  110  A    between atoms: _286  and  _287
REMARK  111  A    between atoms: _289  and  _291
REMARK  112  A    between atoms: _291  and  _292
REMARK  113  A    between atoms: _291  and  _294
REMARK  114  A    between atoms: _297  and  _299
REMARK  115  A    between atoms: _299  and  _300
REMARK  116  A    between atoms: _299  and  _302
REMARK  117  A    between atoms: _302  and  _303
REMARK  118  A    between atoms: _308  and  _309
REMARK  119  A    between atoms: _311  and  _313
REMARK  120  A    between atoms: _313  and  _314
REMARK  121  A    between atoms: _313  and  _316
REMARK  122  A    between atoms: _316  and  _317
REMARK  123  A    between atoms: _317  and  _318
REMARK  124  A    between atoms: _320  and  _322
REMARK  125  A    between atoms: _322  and  _323
REMARK  126  A    between atoms: _322  and  _325
REMARK  127  A    between atoms: _325  and  _326
REMARK  128  A    between atoms: _328  and  _330
REMARK  129  A    between atoms: _330  and  _331
REMARK  130  A    between atoms: _333  and  _335
REMARK  131  A    between atoms: _335  and  _336
REMARK  132  A    between atoms: _335  and  _338
REMARK  133  A    between atoms: _338  and  _339
REMARK  134  A    between atoms: _342  and  _344
REMARK  135  A    between atoms: _344  and  _345
REMARK  136  A    between atoms: _344  and  _347
REMARK  137  A    between atoms: _347  and  _348
REMARK  138  A    between atoms: _351  and  _353
REMARK  139  A    between atoms: _353  and  _354
REMARK  140  A    between atoms: _353  and  _356
REMARK  141  A    between atoms: _356  and  _357
REMARK  142  A    between atoms: _363  and  _365
REMARK  143  A    between atoms: _365  and  _366
REMARK  144  A    between atoms: _365  and  _368
REMARK  145  A    between atoms: _368  and  _369
REMARK  146  A    between atoms: _374  and  _375
REMARK  147  A    between atoms: _377  and  _379
REMARK  148  A    between atoms: _379  and  _380
REMARK  149  A    between atoms: _379  and  _382
REMARK  150  A    between atoms: _382  and  _383
REMARK  151  A    between atoms: _383  and  _384
REMARK  152  A    between atoms: _389  and  _391
REMARK  153  A    between atoms: _391  and  _392
REMARK  154  A    between atoms: _391  and  _394
REMARK  155  A    between atoms: _394  and  _395
REMARK  156  A    between atoms: _400  and  _402
REMARK  157  A    between atoms: _402  and  _403
REMARK  158  A    between atoms: _405  and  _407
REMARK  159  A    between atoms: _407  and  _408
REMARK  160  A    between atoms: _407  and  _410
REMARK  161  A    between atoms: _410  and  _411
REMARK  162  A    between atoms: _413  and  _415
REMARK  163  A    between atoms: _415  and  _416
REMARK  164  A    between atoms: _415  and  _418
REMARK  165  A    between atoms: _418  and  _419
REMARK  166  A    between atoms: _421  and  _423
REMARK  167  A    between atoms: _423  and  _424
REMARK  168  A    between atoms: _423  and  _426
REMARK  169  A    between atoms: _426  and  _427
REMARK  170  A    between atoms: _432  and  _433
REMARK  171  A    between atoms: _435  and  _437
REMARK  172  A    between atoms: _437  and  _438
REMARK  173  A    between atoms: _441  and  _443
REMARK  174  A    between atoms: _443  and  _444
REMARK  175  A    between atoms: _443  and  _446
REMARK  176  A    between atoms: _446  and  _447
REMARK  177  A    between atoms: _453  and  _455
REMARK  178  A    between atoms: _455  and  _456
REMARK  179  A    between atoms: _455  and  _458
REMARK  180  A    between atoms: _458  and  _459
REMARK  181  A    between atoms: _462  and  _464
REMARK  182  A    between atoms: _464  and  _465
REMARK  183  A    between atoms: _464  and  _467
REMARK  184  A    between atoms: _467  and  _468
REMARK  185  A    between atoms: _471  and  _473
REMARK  186  A    between atoms: _473  and  _474
REMARK  187  A    between atoms: _473  and  _476
REMARK  188  A    between atoms: _476  and  _477
REMARK  189  A    between atoms: _480  and  _482
REMARK  190  A    between atoms: _482  and  _483
REMARK  191  A    between atoms: _487  and  _488
REMARK  192  A    between atoms: _493  and  _495
REMARK  193  A    between atoms: _495  and  _496
REMARK  194  A    between atoms: _495  and  _498
REMARK  195  A    between atoms: _498  and  _499
REMARK  196  A    between atoms: _504  and  _506
REMARK  197  A    between atoms: _506  and  _507
REMARK  198  A    between atoms: _506  and  _509
REMARK  199  A    between atoms: _509  and  _510
REMARK  200  A    between atoms: _516  and  _518
REMARK  201  A    between atoms: _518  and  _519
REMARK  202  A    between atoms: _518  and  _521
REMARK  203  A    between atoms: _521  and  _522
REMARK  204  A    between atoms: _522  and  _523
REMARK  205  A    between atoms: _523  and  _524
REMARK  206  A    between atoms: _524  and  _525
REMARK  207  A    between atoms: _529  and  _531
REMARK  208  A    between atoms: _531  and  _532
REMARK  209  A    between atoms: _531  and  _534
REMARK  210  A    between atoms: _534  and  _535
REMARK  211  A    between atoms: _540  and  _542
REMARK  212  A    between atoms: _542  and  _543
REMARK  213  A    between atoms: _542  and  _545
REMARK  214  A    between atoms: _545  and  _546
REMARK  215  A    between atoms: _551  and  _553
REMARK  216  A    between atoms: _553  and  _554
REMARK  217  A    between atoms: _553  and  _556
REMARK  218  A    between atoms: _556  and  _557
REMARK  219  A    between atoms: _559  and  _561
REMARK  220  A    between atoms: _561  and  _562
REMARK  221  A    between atoms: _561  and  _564
REMARK  222  A    between atoms: _564  and  _565
REMARK  223  A    between atoms: _570  and  _572
REMARK  224  A    between atoms: _572  and  _573
REMARK  225  A    between atoms: _572  and  _575
REMARK  226  A    between atoms: _575  and  _576
REMARK  227  A    between atoms: _581  and  _582
REMARK  228  A    between atoms: _584  and  _586
REMARK  229  A    between atoms: _586  and  _587
REMARK  230  A    between atoms: _586  and  _589
REMARK  231  A    between atoms: _589  and  _590
REMARK  232  A    between atoms: _593  and  _595
REMARK  233  A    between atoms: _595  and  _596
REMARK  234  A    between atoms: _598  and  _600
REMARK  235  A    between atoms: _600  and  _601
REMARK  236  A    between atoms: _600  and  _603
REMARK  237  A    between atoms: _603  and  _604
REMARK  238  A    between atoms: _609  and  _611
REMARK  239  A    between atoms: _611  and  _612
REMARK  240  A    between atoms: _611  and  _614
REMARK  241  A    between atoms: _614  and  _615
REMARK  242  A    between atoms: _617  and  _619
REMARK  243  A    between atoms: _619  and  _620
REMARK  244  A    between atoms: _619  and  _622
REMARK  245  A    between atoms: _622  and  _623
REMARK  246  A    between atoms: _626  and  _628
REMARK  247  A    between atoms: _628  and  _629
REMARK  248  A    between atoms: _628  and  _631
REMARK  249  A    between atoms: _631  and  _632
REMARK  250  A    between atoms: _634  and  _636
REMARK  251  A    between atoms: _636  and  _637
REMARK  252  A    between atoms: _636  and  _639
REMARK  253  A    between atoms: _639  and  _640
REMARK  254  A    between atoms: _643  and  _645
REMARK  255  A    between atoms: _645  and  _646
REMARK  256  A    between atoms: _645  and  _648
REMARK  257  A    between atoms: _648  and  _649
REMARK                            x       y       z     vdW  Elec       q    Type
REMARK                         _______ _______ _______ _____ _____    ______ ____
ROOT
ATOM      1  O   HOH     1      24.986   0.253  22.123  0.00  0.00    +0.000 OA
ENDROOT
TORSDOF 0
REMARK  Name = ../refined-set-2016/1ro7/1ro7_pocket.pdb
REMARK  257 active torsions:
REMARK  status: ('A' for Active; 'I' for Inactive)
REMARK    1  A    between atoms: _1  and  _3
REMARK    2  A    between atoms: _3  and  _4
REMARK    3  A    between atoms: _3  and  _6
REMARK    4  A    between atoms: _6  and  _7
REMARK    5  A    between atoms: _10  and  _12
REMARK    6  A    between atoms: _12  and  _13
REMARK    7  A    between atoms: _16  and  _18
REMARK    8  A    between atoms: _18  and  _19
REMARK    9  A    between atoms: _21  and  _23
REMARK   10  A    between atoms: _23  and  _24
REMARK   11  A    between atoms: _23  and  _26
REMARK   12  A    between atoms: _26  and  _27
REMARK   13  A    between atoms: _32  and  _34
REMARK   14  A    between atoms: _34  and  _35
REMARK   15  A    between atoms: _38  and  _39
REMARK   16  A    between atoms: _44  and  _46
REMARK   17  A    between atoms: _46  and  _47
REMARK   18  A    between atoms: _46  and  _49
REMARK   19  A    between atoms: _49  and  _50
REMARK   20  A    between atoms: _52  and  _54
REMARK   21  A    between atoms: _54  and  _55
REMARK   22  A    between atoms: _54  and  _57
REMARK   23  A    between atoms: _57  and  _58
REMARK   24  A    between atoms: _61  and  _63
REMARK   25  A    between atoms: _63  and  _64
REMARK   26  A    between atoms: _63  and  _66
REMARK   27  A    between atoms: _66  and  _67
REMARK   28  A    between atoms: _67  and  _68
REMARK   29  A    between atoms: _68  and  _69
REMARK   30  A    between atoms: _78  and  _80
REMARK   31  A    between atoms: _80  and  _81
REMARK   32  A    between atoms: _80  and  _83
REMARK   33  A    between atoms: _85  and  _87
REMARK   34  A    between atoms: _87  and  _88
REMARK   35  A    between atoms: _87  and  _90
REMARK   36  A    between atoms: _90  and  _91
REMARK   37  A    between atoms: _96  and  _98
REMARK   38  A    between atoms: _98  and  _99
REMARK   39  A    between atoms: _98  and  _101
REMARK   40  A    between atoms: _101  and  _102
REMARK   41  A    between atoms: _102  and  _103
REMARK   42  A    between atoms: _108  and  _110
REMARK   43  A    between atoms: _110  and  _111
REMARK   44  A    between atoms: _110  and  _113
REMARK   45  A    between atoms: _113  and  _114
REMARK   46  A    between atoms: _120  and  _122
REMARK   47  A    between atoms: _122  and  _123
REMARK   48  A    between atoms: _122  and  _125
REMARK   49  A    between atoms: _125  and  _126
REMARK   50  A    between atoms: _131  and  _132
REMARK   51  A    between atoms: _134  and  _136
REMARK   52  A    between atoms: _136  and  _137
REMARK   53  A    between atoms: _136  and  _139
REMARK   54  A    between atoms: _139  and  _140
REMARK   55  A    between atoms: _146  and  _148
REMARK   56  A    between atoms: _148  and  _149
REMARK   57  A    between atoms: _148  and  _151
REMARK   58  A    between atoms: _151  and  _152
REMARK   59  A    between atoms: _157  and  _158
REMARK   60  A    between atoms: _160  and  _162
REMARK   61  A    between atoms: _162  and  _163
REMARK   62  A    between atoms: _162  and  _165
REMARK   63  A    between atoms: _165  and  _166
REMARK   64  A    between atoms: _172  and  _173
REMARK   65  A    between atoms: _178  and  _180
REMARK   66  A    between atoms: _180  and  _181
REMARK   67  A    between atoms: _180  and  _183
REMARK   68  A    between atoms: _183  and  _184
REMARK   69  A    between atoms: _186  and  _188
REMARK   70  A    between atoms: _188  and  _189
REMARK   71  A    between atoms: _188  and  _191
REMARK   72  A    between atoms: _191  and  _192
REMARK   73  A    between atoms: _195  and  _197
REMARK   74  A    between atoms: _197  and  _198
REMARK   75  A    between atoms: _197  and  _200
REMARK   76  A    between atoms: _200  and  _201
REMARK   77  A    between atoms: _207  and  _209
REMARK   78  A    between atoms: _209  and  _210
REMARK   79  A    between atoms: _209  and  _212
REMARK   80  A    between atoms: _212  and  _213
REMARK   81  A    between atoms: _213  and  _214
REMARK   82  A    between atoms: _219  and  _221
REMARK   83  A    between atoms: _221  and  _222
REMARK   84  A    between atoms: _221  and  _224
REMARK   85  A    between atoms: _224  and  _225
REMARK   86  A    between atoms: _227  and  _229
REMARK   87  A    between atoms: _229  and  _230
REMARK   88  A    between atoms: _229  and  _232
REMARK   89  A    between atoms: _232  and  _233
REMARK   90  A    between atoms: _238  and  _239
REMARK   91  A    between atoms: _241  and  _243
REMARK   92  A    between atoms: _243  and  _244
REMARK   93  A    between atoms: _243  and  _246
REMARK   94  A    between atoms: _246  and  _247
REMARK   95  A    between atoms: _247  and  _248
REMARK   96  A    between atoms: _248  and  _249
REMARK   97  A    between atoms: _258  and  _260
REMARK   98  A    between atoms: _260  and  _261
REMARK   99  A    between atoms: _260  and  _263
REMARK  100  A    between atoms: _263  and  _264
REMARK  101  A    between atoms: _267  and  _269
REMARK  102  A    between atoms: _269  and  _270
REMARK  103  A    between atoms: _269  and  _272
REMARK  104  A    between atoms: _272  and  _273
REMARK  105  A    between atoms: _276  and  _278
REMARK  106  A    between atoms: _278  and  _279
REMARK  107  A    between atoms: _278  and  _281
REMARK  108  A    between atoms: _281  and  _282
REMARK  109  A    between atoms: _284  and  _286
REMARK  110  A    between atoms: _286  and  _287
REMARK  111  A    between atoms: _289  and  _291
REMARK  112  A    between atoms: _291  and  _292
REMARK  113  A    between atoms: _291  and  _294
REMARK  114  A    between atoms: _297  and  _299
REMARK  115  A    between atoms: _299  and  _300
REMARK  116  A    between atoms: _299  and  _302
REMARK  117  A    between atoms: _302  and  _303
REMARK  118  A    between atoms: _308  and  _309
REMARK  119  A    between atoms: _311  and  _313
REMARK  120  A    between atoms: _313  and  _314
REMARK  121  A    between atoms: _313  and  _316
REMARK  122  A    between atoms: _316  and  _317
REMARK  123  A    between atoms: _317  and  _318
REMARK  124  A    between atoms: _320  and  _322
REMARK  125  A    between atoms: _322  and  _323
REMARK  126  A    between atoms: _322  and  _325
REMARK  127  A    between atoms: _325  and  _326
REMARK  128  A    between atoms: _328  and  _330
REMARK  129  A    between atoms: _330  and  _331
REMARK  130  A    between atoms: _333  and  _335
REMARK  131  A    between atoms: _335  and  _336
REMARK  132  A    between atoms: _335  and  _338
REMARK  133  A    between atoms: _338  and  _339
REMARK  134  A    between atoms: _342  and  _344
REMARK  135  A    between atoms: _344  and  _345
REMARK  136  A    between atoms: _344  and  _347
REMARK  137  A    between atoms: _347  and  _348
REMARK  138  A    between atoms: _351  and  _353
REMARK  139  A    between atoms: _353  and  _354
REMARK  140  A    between atoms: _353  and  _356
REMARK  141  A    between atoms: _356  and  _357
REMARK  142  A    between atoms: _363  and  _365
REMARK  143  A    between atoms: _365  and  _366
REMARK  144  A    between atoms: _365  and  _368
REMARK  145  A    between atoms: _368  and  _369
REMARK  146  A    between atoms: _374  and  _375
REMARK  147  A    between atoms: _377  and  _379
REMARK  148  A    between atoms: _379  and  _380
REMARK  149  A    between atoms: _379  and  _382
REMARK  150  A    between atoms: _382  and  _383
REMARK  151  A    between atoms: _383  and  _384
REMARK  152  A    between atoms: _389  and  _391
REMARK  153  A    between atoms: _391  and  _392
REMARK  154  A    between atoms: _391  and  _394
REMARK  155  A    between atoms: _394  and  _395
REMARK  156  A    between atoms: _400  and  _402
REMARK  157  A    between atoms: _402  and  _403
REMARK  158  A    between atoms: _405  and  _407
REMARK  159  A    between atoms: _407  and  _408
REMARK  160  A    between atoms: _407  and  _410
REMARK  161  A    between atoms: _410  and  _411
REMARK  162  A    between atoms: _413  and  _415
REMARK  163  A    between atoms: _415  and  _416
REMARK  164  A    between atoms: _415  and  _418
REMARK  165  A    between atoms: _418  and  _419
REMARK  166  A    between atoms: _421  and  _423
REMARK  167  A    between atoms: _423  and  _424
REMARK  168  A    between atoms: _423  and  _426
REMARK  169  A    between atoms: _426  and  _427
REMARK  170  A    between atoms: _432  and  _433
REMARK  171  A    between atoms: _435  and  _437
REMARK  172  A    between atoms: _437  and  _438
REMARK  173  A    between atoms: _441  and  _443
REMARK  174  A    between atoms: _443  and  _444
REMARK  175  A    between atoms: _443  and  _446
REMARK  176  A    between atoms: _446  and  _447
REMARK  177  A    between atoms: _453  and  _455
REMARK  178  A    between atoms: _455  and  _456
REMARK  179  A    between atoms: _455  and  _458
REMARK  180  A    between atoms: _458  and  _459
REMARK  181  A    between atoms: _462  and  _464
REMARK  182  A    between atoms: _464  and  _465
REMARK  183  A    between atoms: _464  and  _467
REMARK  184  A    between atoms: _467  and  _468
REMARK  185  A    between atoms: _471  and  _473
REMARK  186  A    between atoms: _473  and  _474
REMARK  187  A    between atoms: _473  and  _476
REMARK  188  A    between atoms: _476  and  _477
REMARK  189  A    between atoms: _480  and  _482
REMARK  190  A    between atoms: _482  and  _483
REMARK  191  A    between atoms: _487  and  _488
REMARK  192  A    between atoms: _493  and  _495
REMARK  193  A    between atoms: _495  and  _496
REMARK  194  A    between atoms: _495  and  _498
REMARK  195  A    between atoms: _498  and  _499
REMARK  196  A    between atoms: _504  and  _506
REMARK  197  A    between atoms: _506  and  _507
REMARK  198  A    between atoms: _506  and  _509
REMARK  199  A    between atoms: _509  and  _510
REMARK  200  A    between atoms: _516  and  _518
REMARK  201  A    between atoms: _518  and  _519
REMARK  202  A    between atoms: _518  and  _521
REMARK  203  A    between atoms: _521  and  _522
REMARK  204  A    between atoms: _522  and  _523
REMARK  205  A    between atoms: _523  and  _524
REMARK  206  A    between atoms: _524  and  _525
REMARK  207  A    between atoms: _529  and  _531
REMARK  208  A    between atoms: _531  and  _532
REMARK  209  A    between atoms: _531  and  _534
REMARK  210  A    between atoms: _534  and  _535
REMARK  211  A    between atoms: _540  and  _542
REMARK  212  A    between atoms: _542  and  _543
REMARK  213  A    between atoms: _542  and  _545
REMARK  214  A    between atoms: _545  and  _546
REMARK  215  A    between atoms: _551  and  _553
REMARK  216  A    between atoms: _553  and  _554
REMARK  217  A    between atoms: _553  and  _556
REMARK  218  A    between atoms: _556  and  _557
REMARK  219  A    between atoms: _559  and  _561
REMARK  220  A    between atoms: _561  and  _562
REMARK  221  A    between atoms: _561  and  _564
REMARK  222  A    between atoms: _564  and  _565
REMARK  223  A    between atoms: _570  and  _572
REMARK  224  A    between atoms: _572  and  _573
REMARK  225  A    between atoms: _572  and  _575
REMARK  226  A    between atoms: _575  and  _576
REMARK  227  A    between atoms: _581  and  _582
REMARK  228  A    between atoms: _584  and  _586
REMARK  229  A    between atoms: _586  and  _587
REMARK  230  A    between atoms: _586  and  _589
REMARK  231  A    between atoms: _589  and  _590
REMARK  232  A    between atoms: _593  and  _595
REMARK  233  A    between atoms: _595  and  _596
REMARK  234  A    between atoms: _598  and  _600
REMARK  235  A    between atoms: _600  and  _601
REMARK  236  A    between atoms: _600  and  _603
REMARK  237  A    between atoms: _603  and  _604
REMARK  238  A    between atoms: _609  and  _611
REMARK  239  A    between atoms: _611  and  _612
REMARK  240  A    between atoms: _611  and  _614
REMARK  241  A    between atoms: _614  and  _615
REMARK  242  A    between atoms: _617  and  _619
REMARK  243  A    between atoms: _619  and  _620
REMARK  244  A    between atoms: _619  and  _622
REMARK  245  A    between atoms: _622  and  _623
REMARK  246  A    between atoms: _626  and  _628
REMARK  247  A    between atoms: _628  and  _629
REMARK  248  A    between atoms: _628  and  _631
REMARK  249  A    between atoms: _631  and  _632
REMARK  250  A    between atoms: _634  and  _636
REMARK  251  A    between atoms: _636  and  _637
REMARK  252  A    between atoms: _636  and  _639
REMARK  253  A    between atoms: _639  and  _640
REMARK  254  A    between atoms: _643  and  _645
REMARK  255  A    between atoms: _645  and  _646
REMARK  256  A    between atoms: _645  and  _648
REMARK  257  A    between atoms: _648  and  _649
REMARK                            x       y       z     vdW  Elec       q    Type
REMARK                         _______ _______ _______ _____ _____    ______ ____
ROOT
ATOM      1  O   HOH     1      28.252  -4.842  15.404  0.00  0.00    +0.000 OA
ENDROOT
TORSDOF 0
REMARK  Name = ../refined-set-2016/1ro7/1ro7_pocket.pdb
REMARK  257 active torsions:
REMARK  status: ('A' for Active; 'I' for Inactive)
REMARK    1  A    between atoms: _1  and  _3
REMARK    2  A    between atoms: _3  and  _4
REMARK    3  A    between atoms: _3  and  _6
REMARK    4  A    between atoms: _6  and  _7
REMARK    5  A    between atoms: _10  and  _12
REMARK    6  A    between atoms: _12  and  _13
REMARK    7  A    between atoms: _16  and  _18
REMARK    8  A    between atoms: _18  and  _19
REMARK    9  A    between atoms: _21  and  _23
REMARK   10  A    between atoms: _23  and  _24
REMARK   11  A    between atoms: _23  and  _26
REMARK   12  A    between atoms: _26  and  _27
REMARK   13  A    between atoms: _32  and  _34
REMARK   14  A    between atoms: _34  and  _35
REMARK   15  A    between atoms: _38  and  _39
REMARK   16  A    between atoms: _44  and  _46
REMARK   17  A    between atoms: _46  and  _47
REMARK   18  A    between atoms: _46  and  _49
REMARK   19  A    between atoms: _49  and  _50
REMARK   20  A    between atoms: _52  and  _54
REMARK   21  A    between atoms: _54  and  _55
REMARK   22  A    between atoms: _54  and  _57
REMARK   23  A    between atoms: _57  and  _58
REMARK   24  A    between atoms: _61  and  _63
REMARK   25  A    between atoms: _63  and  _64
REMARK   26  A    between atoms: _63  and  _66
REMARK   27  A    between atoms: _66  and  _67
REMARK   28  A    between atoms: _67  and  _68
REMARK   29  A    between atoms: _68  and  _69
REMARK   30  A    between atoms: _78  and  _80
REMARK   31  A    between atoms: _80  and  _81
REMARK   32  A    between atoms: _80  and  _83
REMARK   33  A    between atoms: _85  and  _87
REMARK   34  A    between atoms: _87  and  _88
REMARK   35  A    between atoms: _87  and  _90
REMARK   36  A    between atoms: _90  and  _91
REMARK   37  A    between atoms: _96  and  _98
REMARK   38  A    between atoms: _98  and  _99
REMARK   39  A    between atoms: _98  and  _101
REMARK   40  A    between atoms: _101  and  _102
REMARK   41  A    between atoms: _102  and  _103
REMARK   42  A    between atoms: _108  and  _110
REMARK   43  A    between atoms: _110  and  _111
REMARK   44  A    between atoms: _110  and  _113
REMARK   45  A    between atoms: _113  and  _114
REMARK   46  A    between atoms: _120  and  _122
REMARK   47  A    between atoms: _122  and  _123
REMARK   48  A    between atoms: _122  and  _125
REMARK   49  A    between atoms: _125  and  _126
REMARK   50  A    between atoms: _131  and  _132
REMARK   51  A    between atoms: _134  and  _136
REMARK   52  A    between atoms: _136  and  _137
REMARK   53  A    between atoms: _136  and  _139
REMARK   54  A    between atoms: _139  and  _140
REMARK   55  A    between atoms: _146  and  _148
REMARK   56  A    between atoms: _148  and  _149
REMARK   57  A    between atoms: _148  and  _151
REMARK   58  A    between atoms: _151  and  _152
REMARK   59  A    between atoms: _157  and  _158
REMARK   60  A    between atoms: _160  and  _162
REMARK   61  A    between atoms: _162  and  _163
REMARK   62  A    between atoms: _162  and  _165
REMARK   63  A    between atoms: _165  and  _166
REMARK   64  A    between atoms: _172  and  _173
REMARK   65  A    between atoms: _178  and  _180
REMARK   66  A    between atoms: _180  and  _181
REMARK   67  A    between atoms: _180  and  _183
REMARK   68  A    between atoms: _183  and  _184
REMARK   69  A    between atoms: _186  and  _188
REMARK   70  A    between atoms: _188  and  _189
REMARK   71  A    between atoms: _188  and  _191
REMARK   72  A    between atoms: _191  and  _192
REMARK   73  A    between atoms: _195  and  _197
REMARK   74  A    between atoms: _197  and  _198
REMARK   75  A    between atoms: _197  and  _200
REMARK   76  A    between atoms: _200  and  _201
REMARK   77  A    between atoms: _207  and  _209
REMARK   78  A    between atoms: _209  and  _210
REMARK   79  A    between atoms: _209  and  _212
REMARK   80  A    between atoms: _212  and  _213
REMARK   81  A    between atoms: _213  and  _214
REMARK   82  A    between atoms: _219  and  _221
REMARK   83  A    between atoms: _221  and  _222
REMARK   84  A    between atoms: _221  and  _224
REMARK   85  A    between atoms: _224  and  _225
REMARK   86  A    between atoms: _227  and  _229
REMARK   87  A    between atoms: _229  and  _230
REMARK   88  A    between atoms: _229  and  _232
REMARK   89  A    between atoms: _232  and  _233
REMARK   90  A    between atoms: _238  and  _239
REMARK   91  A    between atoms: _241  and  _243
REMARK   92  A    between atoms: _243  and  _244
REMARK   93  A    between atoms: _243  and  _246
REMARK   94  A    between atoms: _246  and  _247
REMARK   95  A    between atoms: _247  and  _248
REMARK   96  A    between atoms: _248  and  _249
REMARK   97  A    between atoms: _258  and  _260
REMARK   98  A    between atoms: _260  and  _261
REMARK   99  A    between atoms: _260  and  _263
REMARK  100  A    between atoms: _263  and  _264
REMARK  101  A    between atoms: _267  and  _269
REMARK  102  A    between atoms: _269  and  _270
REMARK  103  A    between atoms: _269  and  _272
REMARK  104  A    between atoms: _272  and  _273
REMARK  105  A    between atoms: _276  and  _278
REMARK  106  A    between atoms: _278  and  _279
REMARK  107  A    between atoms: _278  and  _281
REMARK  108  A    between atoms: _281  and  _282
REMARK  109  A    between atoms: _284  and  _286
REMARK  110  A    between atoms: _286  and  _287
REMARK  111  A    between atoms: _289  and  _291
REMARK  112  A    between atoms: _291  and  _292
REMARK  113  A    between atoms: _291  and  _294
REMARK  114  A    between atoms: _297  and  _299
REMARK  115  A    between atoms: _299  and  _300
REMARK  116  A    between atoms: _299  and  _302
REMARK  117  A    between atoms: _302  and  _303
REMARK  118  A    between atoms: _308  and  _309
REMARK  119  A    between atoms: _311  and  _313
REMARK  120  A    between atoms: _313  and  _314
REMARK  121  A    between atoms: _313  and  _316
REMARK  122  A    between atoms: _316  and  _317
REMARK  123  A    between atoms: _317  and  _318
REMARK  124  A    between atoms: _320  and  _322
REMARK  125  A    between atoms: _322  and  _323
REMARK  126  A    between atoms: _322  and  _325
REMARK  127  A    between atoms: _325  and  _326
REMARK  128  A    between atoms: _328  and  _330
REMARK  129  A    between atoms: _330  and  _331
REMARK  130  A    between atoms: _333  and  _335
REMARK  131  A    between atoms: _335  and  _336
REMARK  132  A    between atoms: _335  and  _338
REMARK  133  A    between atoms: _338  and  _339
REMARK  134  A    between atoms: _342  and  _344
REMARK  135  A    between atoms: _344  and  _345
REMARK  136  A    between atoms: _344  and  _347
REMARK  137  A    between atoms: _347  and  _348
REMARK  138  A    between atoms: _351  and  _353
REMARK  139  A    between atoms: _353  and  _354
REMARK  140  A    between atoms: _353  and  _356
REMARK  141  A    between atoms: _356  and  _357
REMARK  142  A    between atoms: _363  and  _365
REMARK  143  A    between atoms: _365  and  _366
REMARK  144  A    between atoms: _365  and  _368
REMARK  145  A    between atoms: _368  and  _369
REMARK  146  A    between atoms: _374  and  _375
REMARK  147  A    between atoms: _377  and  _379
REMARK  148  A    between atoms: _379  and  _380
REMARK  149  A    between atoms: _379  and  _382
REMARK  150  A    between atoms: _382  and  _383
REMARK  151  A    between atoms: _383  and  _384
REMARK  152  A    between atoms: _389  and  _391
REMARK  153  A    between atoms: _391  and  _392
REMARK  154  A    between atoms: _391  and  _394
REMARK  155  A    between atoms: _394  and  _395
REMARK  156  A    between atoms: _400  and  _402
REMARK  157  A    between atoms: _402  and  _403
REMARK  158  A    between atoms: _405  and  _407
REMARK  159  A    between atoms: _407  and  _408
REMARK  160  A    between atoms: _407  and  _410
REMARK  161  A    between atoms: _410  and  _411
REMARK  162  A    between atoms: _413  and  _415
REMARK  163  A    between atoms: _415  and  _416
REMARK  164  A    between atoms: _415  and  _418
REMARK  165  A    between atoms: _418  and  _419
REMARK  166  A    between atoms: _421  and  _423
REMARK  167  A    between atoms: _423  and  _424
REMARK  168  A    between atoms: _423  and  _426
REMARK  169  A    between atoms: _426  and  _427
REMARK  170  A    between atoms: _432  and  _433
REMARK  171  A    between atoms: _435  and  _437
REMARK  172  A    between atoms: _437  and  _438
REMARK  173  A    between atoms: _441  and  _443
REMARK  174  A    between atoms: _443  and  _444
REMARK  175  A    between atoms: _443  and  _446
REMARK  176  A    between atoms: _446  and  _447
REMARK  177  A    between atoms: _453  and  _455
REMARK  178  A    between atoms: _455  and  _456
REMARK  179  A    between atoms: _455  and  _458
REMARK  180  A    between atoms: _458  and  _459
REMARK  181  A    between atoms: _462  and  _464
REMARK  182  A    between atoms: _464  and  _465
REMARK  183  A    between atoms: _464  and  _467
REMARK  184  A    between atoms: _467  and  _468
REMARK  185  A    between atoms: _471  and  _473
REMARK  186  A    between atoms: _473  and  _474
REMARK  187  A    between atoms: _473  and  _476
REMARK  188  A    between atoms: _476  and  _477
REMARK  189  A    between atoms: _480  and  _482
REMARK  190  A    between atoms: _482  and  _483
REMARK  191  A    between atoms: _487  and  _488
REMARK  192  A    between atoms: _493  and  _495
REMARK  193  A    between atoms: _495  and  _496
REMARK  194  A    between atoms: _495  and  _498
REMARK  195  A    between atoms: _498  and  _499
REMARK  196  A    between atoms: _504  and  _506
REMARK  197  A    between atoms: _506  and  _507
REMARK  198  A    between atoms: _506  and  _509
REMARK  199  A    between atoms: _509  and  _510
REMARK  200  A    between atoms: _516  and  _518
REMARK  201  A    between atoms: _518  and  _519
REMARK  202  A    between atoms: _518  and  _521
REMARK  203  A    between atoms: _521  and  _522
REMARK  204  A    between atoms: _522  and  _523
REMARK  205  A    between atoms: _523  and  _524
REMARK  206  A    between atoms: _524  and  _525
REMARK  207  A    between atoms: _529  and  _531
REMARK  208  A    between atoms: _531  and  _532
REMARK  209  A    between atoms: _531  and  _534
REMARK  210  A    between atoms: _534  and  _535
REMARK  211  A    between atoms: _540  and  _542
REMARK  212  A    between atoms: _542  and  _543
REMARK  213  A    between atoms: _542  and  _545
REMARK  214  A    between atoms: _545  and  _546
REMARK  215  A    between atoms: _551  and  _553
REMARK  216  A    between atoms: _553  and  _554
REMARK  217  A    between atoms: _553  and  _556
REMARK  218  A    between atoms: _556  and  _557
REMARK  219  A    between atoms: _559  and  _561
REMARK  220  A    between atoms: _561  and  _562
REMARK  221  A    between atoms: _561  and  _564
REMARK  222  A    between atoms: _564  and  _565
REMARK  223  A    between atoms: _570  and  _572
REMARK  224  A    between atoms: _572  and  _573
REMARK  225  A    between atoms: _572  and  _575
REMARK  226  A    between atoms: _575  and  _576
REMARK  227  A    between atoms: _581  and  _582
REMARK  228  A    between atoms: _584  and  _586
REMARK  229  A    between atoms: _586  and  _587
REMARK  230  A    between atoms: _586  and  _589
REMARK  231  A    between atoms: _589  and  _590
REMARK  232  A    between atoms: _593  and  _595
REMARK  233  A    between atoms: _595  and  _596
REMARK  234  A    between atoms: _598  and  _600
REMARK  235  A    between atoms: _600  and  _601
REMARK  236  A    between atoms: _600  and  _603
REMARK  237  A    between atoms: _603  and  _604
REMARK  238  A    between atoms: _609  and  _611
REMARK  239  A    between atoms: _611  and  _612
REMARK  240  A    between atoms: _611  and  _614
REMARK  241  A    between atoms: _614  and  _615
REMARK  242  A    between atoms: _617  and  _619
REMARK  243  A    between atoms: _619  and  _620
REMARK  244  A    between atoms: _619  and  _622
REMARK  245  A    between atoms: _622  and  _623
REMARK  246  A    between atoms: _626  and  _628
REMARK  247  A    between atoms: _628  and  _629
REMARK  248  A    between atoms: _628  and  _631
REMARK  249  A    between atoms: _631  and  _632
REMARK  250  A    between atoms: _634  and  _636
REMARK  251  A    between atoms: _636  and  _637
REMARK  252  A    between atoms: _636  and  _639
REMARK  253  A    between atoms: _639  and  _640
REMARK  254  A    between atoms: _643  and  _645
REMARK  255  A    between atoms: _645  and  _646
REMARK  256  A    between atoms: _645  and  _648
REMARK  257  A    between atoms: _648  and  _649
REMARK                            x       y       z     vdW  Elec       q    Type
REMARK                         _______ _______ _______ _____ _____    ______ ____
ROOT
ATOM      1  O   HOH     1      23.383 -12.456   9.042  0.00  0.00    +0.000 OA
ENDROOT
TORSDOF 0
REMARK  Name = ../refined-set-2016/1ro7/1ro7_pocket.pdb
REMARK  257 active torsions:
REMARK  status: ('A' for Active; 'I' for Inactive)
REMARK    1  A    between atoms: _1  and  _3
REMARK    2  A    between atoms: _3  and  _4
REMARK    3  A    between atoms: _3  and  _6
REMARK    4  A    between atoms: _6  and  _7
REMARK    5  A    between atoms: _10  and  _12
REMARK    6  A    between atoms: _12  and  _13
REMARK    7  A    between atoms: _16  and  _18
REMARK    8  A    between atoms: _18  and  _19
REMARK    9  A    between atoms: _21  and  _23
REMARK   10  A    between atoms: _23  and  _24
REMARK   11  A    between atoms: _23  and  _26
REMARK   12  A    between atoms: _26  and  _27
REMARK   13  A    between atoms: _32  and  _34
REMARK   14  A    between atoms: _34  and  _35
REMARK   15  A    between atoms: _38  and  _39
REMARK   16  A    between atoms: _44  and  _46
REMARK   17  A    between atoms: _46  and  _47
REMARK   18  A    between atoms: _46  and  _49
REMARK   19  A    between atoms: _49  and  _50
REMARK   20  A    between atoms: _52  and  _54
REMARK   21  A    between atoms: _54  and  _55
REMARK   22  A    between atoms: _54  and  _57
REMARK   23  A    between atoms: _57  and  _58
REMARK   24  A    between atoms: _61  and  _63
REMARK   25  A    between atoms: _63  and  _64
REMARK   26  A    between atoms: _63  and  _66
REMARK   27  A    between atoms: _66  and  _67
REMARK   28  A    between atoms: _67  and  _68
REMARK   29  A    between atoms: _68  and  _69
REMARK   30  A    between atoms: _78  and  _80
REMARK   31  A    between atoms: _80  and  _81
REMARK   32  A    between atoms: _80  and  _83
REMARK   33  A    between atoms: _85  and  _87
REMARK   34  A    between atoms: _87  and  _88
REMARK   35  A    between atoms: _87  and  _90
REMARK   36  A    between atoms: _90  and  _91
REMARK   37  A    between atoms: _96  and  _98
REMARK   38  A    between atoms: _98  and  _99
REMARK   39  A    between atoms: _98  and  _101
REMARK   40  A    between atoms: _101  and  _102
REMARK   41  A    between atoms: _102  and  _103
REMARK   42  A    between atoms: _108  and  _110
REMARK   43  A    between atoms: _110  and  _111
REMARK   44  A    between atoms: _110  and  _113
REMARK   45  A    between atoms: _113  and  _114
REMARK   46  A    between atoms: _120  and  _122
REMARK   47  A    between atoms: _122  and  _123
REMARK   48  A    between atoms: _122  and  _125
REMARK   49  A    between atoms: _125  and  _126
REMARK   50  A    between atoms: _131  and  _132
REMARK   51  A    between atoms: _134  and  _136
REMARK   52  A    between atoms: _136  and  _137
REMARK   53  A    between atoms: _136  and  _139
REMARK   54  A    between atoms: _139  and  _140
REMARK   55  A    between atoms: _146  and  _148
REMARK   56  A    between atoms: _148  and  _149
REMARK   57  A    between atoms: _148  and  _151
REMARK   58  A    between atoms: _151  and  _152
REMARK   59  A    between atoms: _157  and  _158
REMARK   60  A    between atoms: _160  and  _162
REMARK   61  A    between atoms: _162  and  _163
REMARK   62  A    between atoms: _162  and  _165
REMARK   63  A    between atoms: _165  and  _166
REMARK   64  A    between atoms: _172  and  _173
REMARK   65  A    between atoms: _178  and  _180
REMARK   66  A    between atoms: _180  and  _181
REMARK   67  A    between atoms: _180  and  _183
REMARK   68  A    between atoms: _183  and  _184
REMARK   69  A    between atoms: _186  and  _188
REMARK   70  A    between atoms: _188  and  _189
REMARK   71  A    between atoms: _188  and  _191
REMARK   72  A    between atoms: _191  and  _192
REMARK   73  A    between atoms: _195  and  _197
REMARK   74  A    between atoms: _197  and  _198
REMARK   75  A    between atoms: _197  and  _200
REMARK   76  A    between atoms: _200  and  _201
REMARK   77  A    between atoms: _207  and  _209
REMARK   78  A    between atoms: _209  and  _210
REMARK   79  A    between atoms: _209  and  _212
REMARK   80  A    between atoms: _212  and  _213
REMARK   81  A    between atoms: _213  and  _214
REMARK   82  A    between atoms: _219  and  _221
REMARK   83  A    between atoms: _221  and  _222
REMARK   84  A    between atoms: _221  and  _224
REMARK   85  A    between atoms: _224  and  _225
REMARK   86  A    between atoms: _227  and  _229
REMARK   87  A    between atoms: _229  and  _230
REMARK   88  A    between atoms: _229  and  _232
REMARK   89  A    between atoms: _232  and  _233
REMARK   90  A    between atoms: _238  and  _239
REMARK   91  A    between atoms: _241  and  _243
REMARK   92  A    between atoms: _243  and  _244
REMARK   93  A    between atoms: _243  and  _246
REMARK   94  A    between atoms: _246  and  _247
REMARK   95  A    between atoms: _247  and  _248
REMARK   96  A    between atoms: _248  and  _249
REMARK   97  A    between atoms: _258  and  _260
REMARK   98  A    between atoms: _260  and  _261
REMARK   99  A    between atoms: _260  and  _263
REMARK  100  A    between atoms: _263  and  _264
REMARK  101  A    between atoms: _267  and  _269
REMARK  102  A    between atoms: _269  and  _270
REMARK  103  A    between atoms: _269  and  _272
REMARK  104  A    between atoms: _272  and  _273
REMARK  105  A    between atoms: _276  and  _278
REMARK  106  A    between atoms: _278  and  _279
REMARK  107  A    between atoms: _278  and  _281
REMARK  108  A    between atoms: _281  and  _282
REMARK  109  A    between atoms: _284  and  _286
REMARK  110  A    between atoms: _286  and  _287
REMARK  111  A    between atoms: _289  and  _291
REMARK  112  A    between atoms: _291  and  _292
REMARK  113  A    between atoms: _291  and  _294
REMARK  114  A    between atoms: _297  and  _299
REMARK  115  A    between atoms: _299  and  _300
REMARK  116  A    between atoms: _299  and  _302
REMARK  117  A    between atoms: _302  and  _303
REMARK  118  A    between atoms: _308  and  _309
REMARK  119  A    between atoms: _311  and  _313
REMARK  120  A    between atoms: _313  and  _314
REMARK  121  A    between atoms: _313  and  _316
REMARK  122  A    between atoms: _316  and  _317
REMARK  123  A    between atoms: _317  and  _318
REMARK  124  A    between atoms: _320  and  _322
REMARK  125  A    between atoms: _322  and  _323
REMARK  126  A    between atoms: _322  and  _325
REMARK  127  A    between atoms: _325  and  _326
REMARK  128  A    between atoms: _328  and  _330
REMARK  129  A    between atoms: _330  and  _331
REMARK  130  A    between atoms: _333  and  _335
REMARK  131  A    between atoms: _335  and  _336
REMARK  132  A    between atoms: _335  and  _338
REMARK  133  A    between atoms: _338  and  _339
REMARK  134  A    between atoms: _342  and  _344
REMARK  135  A    between atoms: _344  and  _345
REMARK  136  A    between atoms: _344  and  _347
REMARK  137  A    between atoms: _347  and  _348
REMARK  138  A    between atoms: _351  and  _353
REMARK  139  A    between atoms: _353  and  _354
REMARK  140  A    between atoms: _353  and  _356
REMARK  141  A    between atoms: _356  and  _357
REMARK  142  A    between atoms: _363  and  _365
REMARK  143  A    between atoms: _365  and  _366
REMARK  144  A    between atoms: _365  and  _368
REMARK  145  A    between atoms: _368  and  _369
REMARK  146  A    between atoms: _374  and  _375
REMARK  147  A    between atoms: _377  and  _379
REMARK  148  A    between atoms: _379  and  _380
REMARK  149  A    between atoms: _379  and  _382
REMARK  150  A    between atoms: _382  and  _383
REMARK  151  A    between atoms: _383  and  _384
REMARK  152  A    between atoms: _389  and  _391
REMARK  153  A    between atoms: _391  and  _392
REMARK  154  A    between atoms: _391  and  _394
REMARK  155  A    between atoms: _394  and  _395
REMARK  156  A    between atoms: _400  and  _402
REMARK  157  A    between atoms: _402  and  _403
REMARK  158  A    between atoms: _405  and  _407
REMARK  159  A    between atoms: _407  and  _408
REMARK  160  A    between atoms: _407  and  _410
REMARK  161  A    between atoms: _410  and  _411
REMARK  162  A    between atoms: _413  and  _415
REMARK  163  A    between atoms: _415  and  _416
REMARK  164  A    between atoms: _415  and  _418
REMARK  165  A    between atoms: _418  and  _419
REMARK  166  A    between atoms: _421  and  _423
REMARK  167  A    between atoms: _423  and  _424
REMARK  168  A    between atoms: _423  and  _426
REMARK  169  A    between atoms: _426  and  _427
REMARK  170  A    between atoms: _432  and  _433
REMARK  171  A    between atoms: _435  and  _437
REMARK  172  A    between atoms: _437  and  _438
REMARK  173  A    between atoms: _441  and  _443
REMARK  174  A    between atoms: _443  and  _444
REMARK  175  A    between atoms: _443  and  _446
REMARK  176  A    between atoms: _446  and  _447
REMARK  177  A    between atoms: _453  and  _455
REMARK  178  A    between atoms: _455  and  _456
REMARK  179  A    between atoms: _455  and  _458
REMARK  180  A    between atoms: _458  and  _459
REMARK  181  A    between atoms: _462  and  _464
REMARK  182  A    between atoms: _464  and  _465
REMARK  183  A    between atoms: _464  and  _467
REMARK  184  A    between atoms: _467  and  _468
REMARK  185  A    between atoms: _471  and  _473
REMARK  186  A    between atoms: _473  and  _474
REMARK  187  A    between atoms: _473  and  _476
REMARK  188  A    between atoms: _476  and  _477
REMARK  189  A    between atoms: _480  and  _482
REMARK  190  A    between atoms: _482  and  _483
REMARK  191  A    between atoms: _487  and  _488
REMARK  192  A    between atoms: _493  and  _495
REMARK  193  A    between atoms: _495  and  _496
REMARK  194  A    between atoms: _495  and  _498
REMARK  195  A    between atoms: _498  and  _499
REMARK  196  A    between atoms: _504  and  _506
REMARK  197  A    between atoms: _506  and  _507
REMARK  198  A    between atoms: _506  and  _509
REMARK  199  A    between atoms: _509  and  _510
REMARK  200  A    between atoms: _516  and  _518
REMARK  201  A    between atoms: _518  and  _519
REMARK  202  A    between atoms: _518  and  _521
REMARK  203  A    between atoms: _521  and  _522
REMARK  204  A    between atoms: _522  and  _523
REMARK  205  A    between atoms: _523  and  _524
REMARK  206  A    between atoms: _524  and  _525
REMARK  207  A    between atoms: _529  and  _531
REMARK  208  A    between atoms: _531  and  _532
REMARK  209  A    between atoms: _531  and  _534
REMARK  210  A    between atoms: _534  and  _535
REMARK  211  A    between atoms: _540  and  _542
REMARK  212  A    between atoms: _542  and  _543
REMARK  213  A    between atoms: _542  and  _545
REMARK  214  A    between atoms: _545  and  _546
REMARK  215  A    between atoms: _551  and  _553
REMARK  216  A    between atoms: _553  and  _554
REMARK  217  A    between atoms: _553  and  _556
REMARK  218  A    between atoms: _556  and  _557
REMARK  219  A    between atoms: _559  and  _561
REMARK  220  A    between atoms: _561  and  _562
REMARK  221  A    between atoms: _561  and  _564
REMARK  222  A    between atoms: _564  and  _565
REMARK  223  A    between atoms: _570  and  _572
REMARK  224  A    between atoms: _572  and  _573
REMARK  225  A    between atoms: _572  and  _575
REMARK  226  A    between atoms: _575  and  _576
REMARK  227  A    between atoms: _581  and  _582
REMARK  228  A    between atoms: _584  and  _586
REMARK  229  A    between atoms: _586  and  _587
REMARK  230  A    between atoms: _586  and  _589
REMARK  231  A    between atoms: _589  and  _590
REMARK  232  A    between atoms: _593  and  _595
REMARK  233  A    between atoms: _595  and  _596
REMARK  234  A    between atoms: _598  and  _600
REMARK  235  A    between atoms: _600  and  _601
REMARK  236  A    between atoms: _600  and  _603
REMARK  237  A    between atoms: _603  and  _604
REMARK  238  A    between atoms: _609  and  _611
REMARK  239  A    between atoms: _611  and  _612
REMARK  240  A    between atoms: _611  and  _614
REMARK  241  A    between atoms: _614  and  _615
REMARK  242  A    between atoms: _617  and  _619
REMARK  243  A    between atoms: _619  and  _620
REMARK  244  A    between atoms: _619  and  _622
REMARK  245  A    between atoms: _622  and  _623
REMARK  246  A    between atoms: _626  and  _628
REMARK  247  A    between atoms: _628  and  _629
REMARK  248  A    between atoms: _628  and  _631
REMARK  249  A    between atoms: _631  and  _632
REMARK  250  A    between atoms: _634  and  _636
REMARK  251  A    between atoms: _636  and  _637
REMARK  252  A    between atoms: _636  and  _639
REMARK  253  A    between atoms: _639  and  _640
REMARK  254  A    between atoms: _643  and  _645
REMARK  255  A    between atoms: _645  and  _646
REMARK  256  A    between atoms: _645  and  _648
REMARK  257  A    between atoms: _648  and  _649
REMARK                            x       y       z     vdW  Elec       q    Type
REMARK                         _______ _______ _______ _____ _____    ______ ____
ROOT
ATOM      1  O   HOH     1      16.291   3.283   8.823  0.00  0.00    +0.000 OA
ENDROOT
TORSDOF 0
REMARK  Name = ../refined-set-2016/1ro7/1ro7_pocket.pdb
REMARK  257 active torsions:
REMARK  status: ('A' for Active; 'I' for Inactive)
REMARK    1  A    between atoms: _1  and  _3
REMARK    2  A    between atoms: _3  and  _4
REMARK    3  A    between atoms: _3  and  _6
REMARK    4  A    between atoms: _6  and  _7
REMARK    5  A    between atoms: _10  and  _12
REMARK    6  A    between atoms: _12  and  _13
REMARK    7  A    between atoms: _16  and  _18
REMARK    8  A    between atoms: _18  and  _19
REMARK    9  A    between atoms: _21  and  _23
REMARK   10  A    between atoms: _23  and  _24
REMARK   11  A    between atoms: _23  and  _26
REMARK   12  A    between atoms: _26  and  _27
REMARK   13  A    between atoms: _32  and  _34
REMARK   14  A    between atoms: _34  and  _35
REMARK   15  A    between atoms: _38  and  _39
REMARK   16  A    between atoms: _44  and  _46
REMARK   17  A    between atoms: _46  and  _47
REMARK   18  A    between atoms: _46  and  _49
REMARK   19  A    between atoms: _49  and  _50
REMARK   20  A    between atoms: _52  and  _54
REMARK   21  A    between atoms: _54  and  _55
REMARK   22  A    between atoms: _54  and  _57
REMARK   23  A    between atoms: _57  and  _58
REMARK   24  A    between atoms: _61  and  _63
REMARK   25  A    between atoms: _63  and  _64
REMARK   26  A    between atoms: _63  and  _66
REMARK   27  A    between atoms: _66  and  _67
REMARK   28  A    between atoms: _67  and  _68
REMARK   29  A    between atoms: _68  and  _69
REMARK   30  A    between atoms: _78  and  _80
REMARK   31  A    between atoms: _80  and  _81
REMARK   32  A    between atoms: _80  and  _83
REMARK   33  A    between atoms: _85  and  _87
REMARK   34  A    between atoms: _87  and  _88
REMARK   35  A    between atoms: _87  and  _90
REMARK   36  A    between atoms: _90  and  _91
REMARK   37  A    between atoms: _96  and  _98
REMARK   38  A    between atoms: _98  and  _99
REMARK   39  A    between atoms: _98  and  _101
REMARK   40  A    between atoms: _101  and  _102
REMARK   41  A    between atoms: _102  and  _103
REMARK   42  A    between atoms: _108  and  _110
REMARK   43  A    between atoms: _110  and  _111
REMARK   44  A    between atoms: _110  and  _113
REMARK   45  A    between atoms: _113  and  _114
REMARK   46  A    between atoms: _120  and  _122
REMARK   47  A    between atoms: _122  and  _123
REMARK   48  A    between atoms: _122  and  _125
REMARK   49  A    between atoms: _125  and  _126
REMARK   50  A    between atoms: _131  and  _132
REMARK   51  A    between atoms: _134  and  _136
REMARK   52  A    between atoms: _136  and  _137
REMARK   53  A    between atoms: _136  and  _139
REMARK   54  A    between atoms: _139  and  _140
REMARK   55  A    between atoms: _146  and  _148
REMARK   56  A    between atoms: _148  and  _149
REMARK   57  A    between atoms: _148  and  _151
REMARK   58  A    between atoms: _151  and  _152
REMARK   59  A    between atoms: _157  and  _158
REMARK   60  A    between atoms: _160  and  _162
REMARK   61  A    between atoms: _162  and  _163
REMARK   62  A    between atoms: _162  and  _165
REMARK   63  A    between atoms: _165  and  _166
REMARK   64  A    between atoms: _172  and  _173
REMARK   65  A    between atoms: _178  and  _180
REMARK   66  A    between atoms: _180  and  _181
REMARK   67  A    between atoms: _180  and  _183
REMARK   68  A    between atoms: _183  and  _184
REMARK   69  A    between atoms: _186  and  _188
REMARK   70  A    between atoms: _188  and  _189
REMARK   71  A    between atoms: _188  and  _191
REMARK   72  A    between atoms: _191  and  _192
REMARK   73  A    between atoms: _195  and  _197
REMARK   74  A    between atoms: _197  and  _198
REMARK   75  A    between atoms: _197  and  _200
REMARK   76  A    between atoms: _200  and  _201
REMARK   77  A    between atoms: _207  and  _209
REMARK   78  A    between atoms: _209  and  _210
REMARK   79  A    between atoms: _209  and  _212
REMARK   80  A    between atoms: _212  and  _213
REMARK   81  A    between atoms: _213  and  _214
REMARK   82  A    between atoms: _219  and  _221
REMARK   83  A    between atoms: _221  and  _222
REMARK   84  A    between atoms: _221  and  _224
REMARK   85  A    between atoms: _224  and  _225
REMARK   86  A    between atoms: _227  and  _229
REMARK   87  A    between atoms: _229  and  _230
REMARK   88  A    between atoms: _229  and  _232
REMARK   89  A    between atoms: _232  and  _233
REMARK   90  A    between atoms: _238  and  _239
REMARK   91  A    between atoms: _241  and  _243
REMARK   92  A    between atoms: _243  and  _244
REMARK   93  A    between atoms: _243  and  _246
REMARK   94  A    between atoms: _246  and  _247
REMARK   95  A    between atoms: _247  and  _248
REMARK   96  A    between atoms: _248  and  _249
REMARK   97  A    between atoms: _258  and  _260
REMARK   98  A    between atoms: _260  and  _261
REMARK   99  A    between atoms: _260  and  _263
REMARK  100  A    between atoms: _263  and  _264
REMARK  101  A    between atoms: _267  and  _269
REMARK  102  A    between atoms: _269  and  _270
REMARK  103  A    between atoms: _269  and  _272
REMARK  104  A    between atoms: _272  and  _273
REMARK  105  A    between atoms: _276  and  _278
REMARK  106  A    between atoms: _278  and  _279
REMARK  107  A    between atoms: _278  and  _281
REMARK  108  A    between atoms: _281  and  _282
REMARK  109  A    between atoms: _284  and  _286
REMARK  110  A    between atoms: _286  and  _287
REMARK  111  A    between atoms: _289  and  _291
REMARK  112  A    between atoms: _291  and  _292
REMARK  113  A    between atoms: _291  and  _294
REMARK  114  A    between atoms: _297  and  _299
REMARK  115  A    between atoms: _299  and  _300
REMARK  116  A    between atoms: _299  and  _302
REMARK  117  A    between atoms: _302  and  _303
REMARK  118  A    between atoms: _308  and  _309
REMARK  119  A    between atoms: _311  and  _313
REMARK  120  A    between atoms: _313  and  _314
REMARK  121  A    between atoms: _313  and  _316
REMARK  122  A    between atoms: _316  and  _317
REMARK  123  A    between atoms: _317  and  _318
REMARK  124  A    between atoms: _320  and  _322
REMARK  125  A    between atoms: _322  and  _323
REMARK  126  A    between atoms: _322  and  _325
REMARK  127  A    between atoms: _325  and  _326
REMARK  128  A    between atoms: _328  and  _330
REMARK  129  A    between atoms: _330  and  _331
REMARK  130  A    between atoms: _333  and  _335
REMARK  131  A    between atoms: _335  and  _336
REMARK  132  A    between atoms: _335  and  _338
REMARK  133  A    between atoms: _338  and  _339
REMARK  134  A    between atoms: _342  and  _344
REMARK  135  A    between atoms: _344  and  _345
REMARK  136  A    between atoms: _344  and  _347
REMARK  137  A    between atoms: _347  and  _348
REMARK  138  A    between atoms: _351  and  _353
REMARK  139  A    between atoms: _353  and  _354
REMARK  140  A    between atoms: _353  and  _356
REMARK  141  A    between atoms: _356  and  _357
REMARK  142  A    between atoms: _363  and  _365
REMARK  143  A    between atoms: _365  and  _366
REMARK  144  A    between atoms: _365  and  _368
REMARK  145  A    between atoms: _368  and  _369
REMARK  146  A    between atoms: _374  and  _375
REMARK  147  A    between atoms: _377  and  _379
REMARK  148  A    between atoms: _379  and  _380
REMARK  149  A    between atoms: _379  and  _382
REMARK  150  A    between atoms: _382  and  _383
REMARK  151  A    between atoms: _383  and  _384
REMARK  152  A    between atoms: _389  and  _391
REMARK  153  A    between atoms: _391  and  _392
REMARK  154  A    between atoms: _391  and  _394
REMARK  155  A    between atoms: _394  and  _395
REMARK  156  A    between atoms: _400  and  _402
REMARK  157  A    between atoms: _402  and  _403
REMARK  158  A    between atoms: _405  and  _407
REMARK  159  A    between atoms: _407  and  _408
REMARK  160  A    between atoms: _407  and  _410
REMARK  161  A    between atoms: _410  and  _411
REMARK  162  A    between atoms: _413  and  _415
REMARK  163  A    between atoms: _415  and  _416
REMARK  164  A    between atoms: _415  and  _418
REMARK  165  A    between atoms: _418  and  _419
REMARK  166  A    between atoms: _421  and  _423
REMARK  167  A    between atoms: _423  and  _424
REMARK  168  A    between atoms: _423  and  _426
REMARK  169  A    between atoms: _426  and  _427
REMARK  170  A    between atoms: _432  and  _433
REMARK  171  A    between atoms: _435  and  _437
REMARK  172  A    between atoms: _437  and  _438
REMARK  173  A    between atoms: _441  and  _443
REMARK  174  A    between atoms: _443  and  _444
REMARK  175  A    between atoms: _443  and  _446
REMARK  176  A    between atoms: _446  and  _447
REMARK  177  A    between atoms: _453  and  _455
REMARK  178  A    between atoms: _455  and  _456
REMARK  179  A    between atoms: _455  and  _458
REMARK  180  A    between atoms: _458  and  _459
REMARK  181  A    between atoms: _462  and  _464
REMARK  182  A    between atoms: _464  and  _465
REMARK  183  A    between atoms: _464  and  _467
REMARK  184  A    between atoms: _467  and  _468
REMARK  185  A    between atoms: _471  and  _473
REMARK  186  A    between atoms: _473  and  _474
REMARK  187  A    between atoms: _473  and  _476
REMARK  188  A    between atoms: _476  and  _477
REMARK  189  A    between atoms: _480  and  _482
REMARK  190  A    between atoms: _482  and  _483
REMARK  191  A    between atoms: _487  and  _488
REMARK  192  A    between atoms: _493  and  _495
REMARK  193  A    between atoms: _495  and  _496
REMARK  194  A    between atoms: _495  and  _498
REMARK  195  A    between atoms: _498  and  _499
REMARK  196  A    between atoms: _504  and  _506
REMARK  197  A    between atoms: _506  and  _507
REMARK  198  A    between atoms: _506  and  _509
REMARK  199  A    between atoms: _509  and  _510
REMARK  200  A    between atoms: _516  and  _518
REMARK  201  A    between atoms: _518  and  _519
REMARK  202  A    between atoms: _518  and  _521
REMARK  203  A    between atoms: _521  and  _522
REMARK  204  A    between atoms: _522  and  _523
REMARK  205  A    between atoms: _523  and  _524
REMARK  206  A    between atoms: _524  and  _525
REMARK  207  A    between atoms: _529  and  _531
REMARK  208  A    between atoms: _531  and  _532
REMARK  209  A    between atoms: _531  and  _534
REMARK  210  A    between atoms: _534  and  _535
REMARK  211  A    between atoms: _540  and  _542
REMARK  212  A    between atoms: _542  and  _543
REMARK  213  A    between atoms: _542  and  _545
REMARK  214  A    between atoms: _545  and  _546
REMARK  215  A    between atoms: _551  and  _553
REMARK  216  A    between atoms: _553  and  _554
REMARK  217  A    between atoms: _553  and  _556
REMARK  218  A    between atoms: _556  and  _557
REMARK  219  A    between atoms: _559  and  _561
REMARK  220  A    between atoms: _561  and  _562
REMARK  221  A    between atoms: _561  and  _564
REMARK  222  A    between atoms: _564  and  _565
REMARK  223  A    between atoms: _570  and  _572
REMARK  224  A    between atoms: _572  and  _573
REMARK  225  A    between atoms: _572  and  _575
REMARK  226  A    between atoms: _575  and  _576
REMARK  227  A    between atoms: _581  and  _582
REMARK  228  A    between atoms: _584  and  _586
REMARK  229  A    between atoms: _586  and  _587
REMARK  230  A    between atoms: _586  and  _589
REMARK  231  A    between atoms: _589  and  _590
REMARK  232  A    between atoms: _593  and  _595
REMARK  233  A    between atoms: _595  and  _596
REMARK  234  A    between atoms: _598  and  _600
REMARK  235  A    between atoms: _600  and  _601
REMARK  236  A    between atoms: _600  and  _603
REMARK  237  A    between atoms: _603  and  _604
REMARK  238  A    between atoms: _609  and  _611
REMARK  239  A    between atoms: _611  and  _612
REMARK  240  A    between atoms: _611  and  _614
REMARK  241  A    between atoms: _614  and  _615
REMARK  242  A    between atoms: _617  and  _619
REMARK  243  A    between atoms: _619  and  _620
REMARK  244  A    between atoms: _619  and  _622
REMARK  245  A    between atoms: _622  and  _623
REMARK  246  A    between atoms: _626  and  _628
REMARK  247  A    between atoms: _628  and  _629
REMARK  248  A    between atoms: _628  and  _631
REMARK  249  A    between atoms: _631  and  _632
REMARK  250  A    between atoms: _634  and  _636
REMARK  251  A    between atoms: _636  and  _637
REMARK  252  A    between atoms: _636  and  _639
REMARK  253  A    between atoms: _639  and  _640
REMARK  254  A    between atoms: _643  and  _645
REMARK  255  A    between atoms: _645  and  _646
REMARK  256  A    between atoms: _645  and  _648
REMARK  257  A    between atoms: _648  and  _649
REMARK                            x       y       z     vdW  Elec       q    Type
REMARK                         _______ _______ _______ _____ _____    ______ ____
ROOT
ATOM      1  O   HOH     1      25.285  -4.686   9.741  0.00  0.00    +0.000 OA
ENDROOT
TORSDOF 0
REMARK  Name = ../refined-set-2016/1ro7/1ro7_pocket.pdb
REMARK  257 active torsions:
REMARK  status: ('A' for Active; 'I' for Inactive)
REMARK    1  A    between atoms: _1  and  _3
REMARK    2  A    between atoms: _3  and  _4
REMARK    3  A    between atoms: _3  and  _6
REMARK    4  A    between atoms: _6  and  _7
REMARK    5  A    between atoms: _10  and  _12
REMARK    6  A    between atoms: _12  and  _13
REMARK    7  A    between atoms: _16  and  _18
REMARK    8  A    between atoms: _18  and  _19
REMARK    9  A    between atoms: _21  and  _23
REMARK   10  A    between atoms: _23  and  _24
REMARK   11  A    between atoms: _23  and  _26
REMARK   12  A    between atoms: _26  and  _27
REMARK   13  A    between atoms: _32  and  _34
REMARK   14  A    between atoms: _34  and  _35
REMARK   15  A    between atoms: _38  and  _39
REMARK   16  A    between atoms: _44  and  _46
REMARK   17  A    between atoms: _46  and  _47
REMARK   18  A    between atoms: _46  and  _49
REMARK   19  A    between atoms: _49  and  _50
REMARK   20  A    between atoms: _52  and  _54
REMARK   21  A    between atoms: _54  and  _55
REMARK   22  A    between atoms: _54  and  _57
REMARK   23  A    between atoms: _57  and  _58
REMARK   24  A    between atoms: _61  and  _63
REMARK   25  A    between atoms: _63  and  _64
REMARK   26  A    between atoms: _63  and  _66
REMARK   27  A    between atoms: _66  and  _67
REMARK   28  A    between atoms: _67  and  _68
REMARK   29  A    between atoms: _68  and  _69
REMARK   30  A    between atoms: _78  and  _80
REMARK   31  A    between atoms: _80  and  _81
REMARK   32  A    between atoms: _80  and  _83
REMARK   33  A    between atoms: _85  and  _87
REMARK   34  A    between atoms: _87  and  _88
REMARK   35  A    between atoms: _87  and  _90
REMARK   36  A    between atoms: _90  and  _91
REMARK   37  A    between atoms: _96  and  _98
REMARK   38  A    between atoms: _98  and  _99
REMARK   39  A    between atoms: _98  and  _101
REMARK   40  A    between atoms: _101  and  _102
REMARK   41  A    between atoms: _102  and  _103
REMARK   42  A    between atoms: _108  and  _110
REMARK   43  A    between atoms: _110  and  _111
REMARK   44  A    between atoms: _110  and  _113
REMARK   45  A    between atoms: _113  and  _114
REMARK   46  A    between atoms: _120  and  _122
REMARK   47  A    between atoms: _122  and  _123
REMARK   48  A    between atoms: _122  and  _125
REMARK   49  A    between atoms: _125  and  _126
REMARK   50  A    between atoms: _131  and  _132
REMARK   51  A    between atoms: _134  and  _136
REMARK   52  A    between atoms: _136  and  _137
REMARK   53  A    between atoms: _136  and  _139
REMARK   54  A    between atoms: _139  and  _140
REMARK   55  A    between atoms: _146  and  _148
REMARK   56  A    between atoms: _148  and  _149
REMARK   57  A    between atoms: _148  and  _151
REMARK   58  A    between atoms: _151  and  _152
REMARK   59  A    between atoms: _157  and  _158
REMARK   60  A    between atoms: _160  and  _162
REMARK   61  A    between atoms: _162  and  _163
REMARK   62  A    between atoms: _162  and  _165
REMARK   63  A    between atoms: _165  and  _166
REMARK   64  A    between atoms: _172  and  _173
REMARK   65  A    between atoms: _178  and  _180
REMARK   66  A    between atoms: _180  and  _181
REMARK   67  A    between atoms: _180  and  _183
REMARK   68  A    between atoms: _183  and  _184
REMARK   69  A    between atoms: _186  and  _188
REMARK   70  A    between atoms: _188  and  _189
REMARK   71  A    between atoms: _188  and  _191
REMARK   72  A    between atoms: _191  and  _192
REMARK   73  A    between atoms: _195  and  _197
REMARK   74  A    between atoms: _197  and  _198
REMARK   75  A    between atoms: _197  and  _200
REMARK   76  A    between atoms: _200  and  _201
REMARK   77  A    between atoms: _207  and  _209
REMARK   78  A    between atoms: _209  and  _210
REMARK   79  A    between atoms: _209  and  _212
REMARK   80  A    between atoms: _212  and  _213
REMARK   81  A    between atoms: _213  and  _214
REMARK   82  A    between atoms: _219  and  _221
REMARK   83  A    between atoms: _221  and  _222
REMARK   84  A    between atoms: _221  and  _224
REMARK   85  A    between atoms: _224  and  _225
REMARK   86  A    between atoms: _227  and  _229
REMARK   87  A    between atoms: _229  and  _230
REMARK   88  A    between atoms: _229  and  _232
REMARK   89  A    between atoms: _232  and  _233
REMARK   90  A    between atoms: _238  and  _239
REMARK   91  A    between atoms: _241  and  _243
REMARK   92  A    between atoms: _243  and  _244
REMARK   93  A    between atoms: _243  and  _246
REMARK   94  A    between atoms: _246  and  _247
REMARK   95  A    between atoms: _247  and  _248
REMARK   96  A    between atoms: _248  and  _249
REMARK   97  A    between atoms: _258  and  _260
REMARK   98  A    between atoms: _260  and  _261
REMARK   99  A    between atoms: _260  and  _263
REMARK  100  A    between atoms: _263  and  _264
REMARK  101  A    between atoms: _267  and  _269
REMARK  102  A    between atoms: _269  and  _270
REMARK  103  A    between atoms: _269  and  _272
REMARK  104  A    between atoms: _272  and  _273
REMARK  105  A    between atoms: _276  and  _278
REMARK  106  A    between atoms: _278  and  _279
REMARK  107  A    between atoms: _278  and  _281
REMARK  108  A    between atoms: _281  and  _282
REMARK  109  A    between atoms: _284  and  _286
REMARK  110  A    between atoms: _286  and  _287
REMARK  111  A    between atoms: _289  and  _291
REMARK  112  A    between atoms: _291  and  _292
REMARK  113  A    between atoms: _291  and  _294
REMARK  114  A    between atoms: _297  and  _299
REMARK  115  A    between atoms: _299  and  _300
REMARK  116  A    between atoms: _299  and  _302
REMARK  117  A    between atoms: _302  and  _303
REMARK  118  A    between atoms: _308  and  _309
REMARK  119  A    between atoms: _311  and  _313
REMARK  120  A    between atoms: _313  and  _314
REMARK  121  A    between atoms: _313  and  _316
REMARK  122  A    between atoms: _316  and  _317
REMARK  123  A    between atoms: _317  and  _318
REMARK  124  A    between atoms: _320  and  _322
REMARK  125  A    between atoms: _322  and  _323
REMARK  126  A    between atoms: _322  and  _325
REMARK  127  A    between atoms: _325  and  _326
REMARK  128  A    between atoms: _328  and  _330
REMARK  129  A    between atoms: _330  and  _331
REMARK  130  A    between atoms: _333  and  _335
REMARK  131  A    between atoms: _335  and  _336
REMARK  132  A    between atoms: _335  and  _338
REMARK  133  A    between atoms: _338  and  _339
REMARK  134  A    between atoms: _342  and  _344
REMARK  135  A    between atoms: _344  and  _345
REMARK  136  A    between atoms: _344  and  _347
REMARK  137  A    between atoms: _347  and  _348
REMARK  138  A    between atoms: _351  and  _353
REMARK  139  A    between atoms: _353  and  _354
REMARK  140  A    between atoms: _353  and  _356
REMARK  141  A    between atoms: _356  and  _357
REMARK  142  A    between atoms: _363  and  _365
REMARK  143  A    between atoms: _365  and  _366
REMARK  144  A    between atoms: _365  and  _368
REMARK  145  A    between atoms: _368  and  _369
REMARK  146  A    between atoms: _374  and  _375
REMARK  147  A    between atoms: _377  and  _379
REMARK  148  A    between atoms: _379  and  _380
REMARK  149  A    between atoms: _379  and  _382
REMARK  150  A    between atoms: _382  and  _383
REMARK  151  A    between atoms: _383  and  _384
REMARK  152  A    between atoms: _389  and  _391
REMARK  153  A    between atoms: _391  and  _392
REMARK  154  A    between atoms: _391  and  _394
REMARK  155  A    between atoms: _394  and  _395
REMARK  156  A    between atoms: _400  and  _402
REMARK  157  A    between atoms: _402  and  _403
REMARK  158  A    between atoms: _405  and  _407
REMARK  159  A    between atoms: _407  and  _408
REMARK  160  A    between atoms: _407  and  _410
REMARK  161  A    between atoms: _410  and  _411
REMARK  162  A    between atoms: _413  and  _415
REMARK  163  A    between atoms: _415  and  _416
REMARK  164  A    between atoms: _415  and  _418
REMARK  165  A    between atoms: _418  and  _419
REMARK  166  A    between atoms: _421  and  _423
REMARK  167  A    between atoms: _423  and  _424
REMARK  168  A    between atoms: _423  and  _426
REMARK  169  A    between atoms: _426  and  _427
REMARK  170  A    between atoms: _432  and  _433
REMARK  171  A    between atoms: _435  and  _437
REMARK  172  A    between atoms: _437  and  _438
REMARK  173  A    between atoms: _441  and  _443
REMARK  174  A    between atoms: _443  and  _444
REMARK  175  A    between atoms: _443  and  _446
REMARK  176  A    between atoms: _446  and  _447
REMARK  177  A    between atoms: _453  and  _455
REMARK  178  A    between atoms: _455  and  _456
REMARK  179  A    between atoms: _455  and  _458
REMARK  180  A    between atoms: _458  and  _459
REMARK  181  A    between atoms: _462  and  _464
REMARK  182  A    between atoms: _464  and  _465
REMARK  183  A    between atoms: _464  and  _467
REMARK  184  A    between atoms: _467  and  _468
REMARK  185  A    between atoms: _471  and  _473
REMARK  186  A    between atoms: _473  and  _474
REMARK  187  A    between atoms: _473  and  _476
REMARK  188  A    between atoms: _476  and  _477
REMARK  189  A    between atoms: _480  and  _482
REMARK  190  A    between atoms: _482  and  _483
REMARK  191  A    between atoms: _487  and  _488
REMARK  192  A    between atoms: _493  and  _495
REMARK  193  A    between atoms: _495  and  _496
REMARK  194  A    between atoms: _495  and  _498
REMARK  195  A    between atoms: _498  and  _499
REMARK  196  A    between atoms: _504  and  _506
REMARK  197  A    between atoms: _506  and  _507
REMARK  198  A    between atoms: _506  and  _509
REMARK  199  A    between atoms: _509  and  _510
REMARK  200  A    between atoms: _516  and  _518
REMARK  201  A    between atoms: _518  and  _519
REMARK  202  A    between atoms: _518  and  _521
REMARK  203  A    between atoms: _521  and  _522
REMARK  204  A    between atoms: _522  and  _523
REMARK  205  A    between atoms: _523  and  _524
REMARK  206  A    between atoms: _524  and  _525
REMARK  207  A    between atoms: _529  and  _531
REMARK  208  A    between atoms: _531  and  _532
REMARK  209  A    between atoms: _531  and  _534
REMARK  210  A    between atoms: _534  and  _535
REMARK  211  A    between atoms: _540  and  _542
REMARK  212  A    between atoms: _542  and  _543
REMARK  213  A    between atoms: _542  and  _545
REMARK  214  A    between atoms: _545  and  _546
REMARK  215  A    between atoms: _551  and  _553
REMARK  216  A    between atoms: _553  and  _554
REMARK  217  A    between atoms: _553  and  _556
REMARK  218  A    between atoms: _556  and  _557
REMARK  219  A    between atoms: _559  and  _561
REMARK  220  A    between atoms: _561  and  _562
REMARK  221  A    between atoms: _561  and  _564
REMARK  222  A    between atoms: _564  and  _565
REMARK  223  A    between atoms: _570  and  _572
REMARK  224  A    between atoms: _572  and  _573
REMARK  225  A    between atoms: _572  and  _575
REMARK  226  A    between atoms: _575  and  _576
REMARK  227  A    between atoms: _581  and  _582
REMARK  228  A    between atoms: _584  and  _586
REMARK  229  A    between atoms: _586  and  _587
REMARK  230  A    between atoms: _586  and  _589
REMARK  231  A    between atoms: _589  and  _590
REMARK  232  A    between atoms: _593  and  _595
REMARK  233  A    between atoms: _595  and  _596
REMARK  234  A    between atoms: _598  and  _600
REMARK  235  A    between atoms: _600  and  _601
REMARK  236  A    between atoms: _600  and  _603
REMARK  237  A    between atoms: _603  and  _604
REMARK  238  A    between atoms: _609  and  _611
REMARK  239  A    between atoms: _611  and  _612
REMARK  240  A    between atoms: _611  and  _614
REMARK  241  A    between atoms: _614  and  _615
REMARK  242  A    between atoms: _617  and  _619
REMARK  243  A    between atoms: _619  and  _620
REMARK  244  A    between atoms: _619  and  _622
REMARK  245  A    between atoms: _622  and  _623
REMARK  246  A    between atoms: _626  and  _628
REMARK  247  A    between atoms: _628  and  _629
REMARK  248  A    between atoms: _628  and  _631
REMARK  249  A    between atoms: _631  and  _632
REMARK  250  A    between atoms: _634  and  _636
REMARK  251  A    between atoms: _636  and  _637
REMARK  252  A    between atoms: _636  and  _639
REMARK  253  A    between atoms: _639  and  _640
REMARK  254  A    between atoms: _643  and  _645
REMARK  255  A    between atoms: _645  and  _646
REMARK  256  A    between atoms: _645  and  _648
REMARK  257  A    between atoms: _648  and  _649
REMARK                            x       y       z     vdW  Elec       q    Type
REMARK                         _______ _______ _______ _____ _____    ______ ____
ROOT
ATOM      1  O   HOH     1      25.748   9.726  16.530  0.00  0.00    +0.000 OA
ENDROOT
TORSDOF 0
REMARK  Name = ../refined-set-2016/1ro7/1ro7_pocket.pdb
REMARK  257 active torsions:
REMARK  status: ('A' for Active; 'I' for Inactive)
REMARK    1  A    between atoms: _1  and  _3
REMARK    2  A    between atoms: _3  and  _4
REMARK    3  A    between atoms: _3  and  _6
REMARK    4  A    between atoms: _6  and  _7
REMARK    5  A    between atoms: _10  and  _12
REMARK    6  A    between atoms: _12  and  _13
REMARK    7  A    between atoms: _16  and  _18
REMARK    8  A    between atoms: _18  and  _19
REMARK    9  A    between atoms: _21  and  _23
REMARK   10  A    between atoms: _23  and  _24
REMARK   11  A    between atoms: _23  and  _26
REMARK   12  A    between atoms: _26  and  _27
REMARK   13  A    between atoms: _32  and  _34
REMARK   14  A    between atoms: _34  and  _35
REMARK   15  A    between atoms: _38  and  _39
REMARK   16  A    between atoms: _44  and  _46
REMARK   17  A    between atoms: _46  and  _47
REMARK   18  A    between atoms: _46  and  _49
REMARK   19  A    between atoms: _49  and  _50
REMARK   20  A    between atoms: _52  and  _54
REMARK   21  A    between atoms: _54  and  _55
REMARK   22  A    between atoms: _54  and  _57
REMARK   23  A    between atoms: _57  and  _58
REMARK   24  A    between atoms: _61  and  _63
REMARK   25  A    between atoms: _63  and  _64
REMARK   26  A    between atoms: _63  and  _66
REMARK   27  A    between atoms: _66  and  _67
REMARK   28  A    between atoms: _67  and  _68
REMARK   29  A    between atoms: _68  and  _69
REMARK   30  A    between atoms: _78  and  _80
REMARK   31  A    between atoms: _80  and  _81
REMARK   32  A    between atoms: _80  and  _83
REMARK   33  A    between atoms: _85  and  _87
REMARK   34  A    between atoms: _87  and  _88
REMARK   35  A    between atoms: _87  and  _90
REMARK   36  A    between atoms: _90  and  _91
REMARK   37  A    between atoms: _96  and  _98
REMARK   38  A    between atoms: _98  and  _99
REMARK   39  A    between atoms: _98  and  _101
REMARK   40  A    between atoms: _101  and  _102
REMARK   41  A    between atoms: _102  and  _103
REMARK   42  A    between atoms: _108  and  _110
REMARK   43  A    between atoms: _110  and  _111
REMARK   44  A    between atoms: _110  and  _113
REMARK   45  A    between atoms: _113  and  _114
REMARK   46  A    between atoms: _120  and  _122
REMARK   47  A    between atoms: _122  and  _123
REMARK   48  A    between atoms: _122  and  _125
REMARK   49  A    between atoms: _125  and  _126
REMARK   50  A    between atoms: _131  and  _132
REMARK   51  A    between atoms: _134  and  _136
REMARK   52  A    between atoms: _136  and  _137
REMARK   53  A    between atoms: _136  and  _139
REMARK   54  A    between atoms: _139  and  _140
REMARK   55  A    between atoms: _146  and  _148
REMARK   56  A    between atoms: _148  and  _149
REMARK   57  A    between atoms: _148  and  _151
REMARK   58  A    between atoms: _151  and  _152
REMARK   59  A    between atoms: _157  and  _158
REMARK   60  A    between atoms: _160  and  _162
REMARK   61  A    between atoms: _162  and  _163
REMARK   62  A    between atoms: _162  and  _165
REMARK   63  A    between atoms: _165  and  _166
REMARK   64  A    between atoms: _172  and  _173
REMARK   65  A    between atoms: _178  and  _180
REMARK   66  A    between atoms: _180  and  _181
REMARK   67  A    between atoms: _180  and  _183
REMARK   68  A    between atoms: _183  and  _184
REMARK   69  A    between atoms: _186  and  _188
REMARK   70  A    between atoms: _188  and  _189
REMARK   71  A    between atoms: _188  and  _191
REMARK   72  A    between atoms: _191  and  _192
REMARK   73  A    between atoms: _195  and  _197
REMARK   74  A    between atoms: _197  and  _198
REMARK   75  A    between atoms: _197  and  _200
REMARK   76  A    between atoms: _200  and  _201
REMARK   77  A    between atoms: _207  and  _209
REMARK   78  A    between atoms: _209  and  _210
REMARK   79  A    between atoms: _209  and  _212
REMARK   80  A    between atoms: _212  and  _213
REMARK   81  A    between atoms: _213  and  _214
REMARK   82  A    between atoms: _219  and  _221
REMARK   83  A    between atoms: _221  and  _222
REMARK   84  A    between atoms: _221  and  _224
REMARK   85  A    between atoms: _224  and  _225
REMARK   86  A    between atoms: _227  and  _229
REMARK   87  A    between atoms: _229  and  _230
REMARK   88  A    between atoms: _229  and  _232
REMARK   89  A    between atoms: _232  and  _233
REMARK   90  A    between atoms: _238  and  _239
REMARK   91  A    between atoms: _241  and  _243
REMARK   92  A    between atoms: _243  and  _244
REMARK   93  A    between atoms: _243  and  _246
REMARK   94  A    between atoms: _246  and  _247
REMARK   95  A    between atoms: _247  and  _248
REMARK   96  A    between atoms: _248  and  _249
REMARK   97  A    between atoms: _258  and  _260
REMARK   98  A    between atoms: _260  and  _261
REMARK   99  A    between atoms: _260  and  _263
REMARK  100  A    between atoms: _263  and  _264
REMARK  101  A    between atoms: _267  and  _269
REMARK  102  A    between atoms: _269  and  _270
REMARK  103  A    between atoms: _269  and  _272
REMARK  104  A    between atoms: _272  and  _273
REMARK  105  A    between atoms: _276  and  _278
REMARK  106  A    between atoms: _278  and  _279
REMARK  107  A    between atoms: _278  and  _281
REMARK  108  A    between atoms: _281  and  _282
REMARK  109  A    between atoms: _284  and  _286
REMARK  110  A    between atoms: _286  and  _287
REMARK  111  A    between atoms: _289  and  _291
REMARK  112  A    between atoms: _291  and  _292
REMARK  113  A    between atoms: _291  and  _294
REMARK  114  A    between atoms: _297  and  _299
REMARK  115  A    between atoms: _299  and  _300
REMARK  116  A    between atoms: _299  and  _302
REMARK  117  A    between atoms: _302  and  _303
REMARK  118  A    between atoms: _308  and  _309
REMARK  119  A    between atoms: _311  and  _313
REMARK  120  A    between atoms: _313  and  _314
REMARK  121  A    between atoms: _313  and  _316
REMARK  122  A    between atoms: _316  and  _317
REMARK  123  A    between atoms: _317  and  _318
REMARK  124  A    between atoms: _320  and  _322
REMARK  125  A    between atoms: _322  and  _323
REMARK  126  A    between atoms: _322  and  _325
REMARK  127  A    between atoms: _325  and  _326
REMARK  128  A    between atoms: _328  and  _330
REMARK  129  A    between atoms: _330  and  _331
REMARK  130  A    between atoms: _333  and  _335
REMARK  131  A    between atoms: _335  and  _336
REMARK  132  A    between atoms: _335  and  _338
REMARK  133  A    between atoms: _338  and  _339
REMARK  134  A    between atoms: _342  and  _344
REMARK  135  A    between atoms: _344  and  _345
REMARK  136  A    between atoms: _344  and  _347
REMARK  137  A    between atoms: _347  and  _348
REMARK  138  A    between atoms: _351  and  _353
REMARK  139  A    between atoms: _353  and  _354
REMARK  140  A    between atoms: _353  and  _356
REMARK  141  A    between atoms: _356  and  _357
REMARK  142  A    between atoms: _363  and  _365
REMARK  143  A    between atoms: _365  and  _366
REMARK  144  A    between atoms: _365  and  _368
REMARK  145  A    between atoms: _368  and  _369
REMARK  146  A    between atoms: _374  and  _375
REMARK  147  A    between atoms: _377  and  _379
REMARK  148  A    between atoms: _379  and  _380
REMARK  149  A    between atoms: _379  and  _382
REMARK  150  A    between atoms: _382  and  _383
REMARK  151  A    between atoms: _383  and  _384
REMARK  152  A    between atoms: _389  and  _391
REMARK  153  A    between atoms: _391  and  _392
REMARK  154  A    between atoms: _391  and  _394
REMARK  155  A    between atoms: _394  and  _395
REMARK  156  A    between atoms: _400  and  _402
REMARK  157  A    between atoms: _402  and  _403
REMARK  158  A    between atoms: _405  and  _407
REMARK  159  A    between atoms: _407  and  _408
REMARK  160  A    between atoms: _407  and  _410
REMARK  161  A    between atoms: _410  and  _411
REMARK  162  A    between atoms: _413  and  _415
REMARK  163  A    between atoms: _415  and  _416
REMARK  164  A    between atoms: _415  and  _418
REMARK  165  A    between atoms: _418  and  _419
REMARK  166  A    between atoms: _421  and  _423
REMARK  167  A    between atoms: _423  and  _424
REMARK  168  A    between atoms: _423  and  _426
REMARK  169  A    between atoms: _426  and  _427
REMARK  170  A    between atoms: _432  and  _433
REMARK  171  A    between atoms: _435  and  _437
REMARK  172  A    between atoms: _437  and  _438
REMARK  173  A    between atoms: _441  and  _443
REMARK  174  A    between atoms: _443  and  _444
REMARK  175  A    between atoms: _443  and  _446
REMARK  176  A    between atoms: _446  and  _447
REMARK  177  A    between atoms: _453  and  _455
REMARK  178  A    between atoms: _455  and  _456
REMARK  179  A    between atoms: _455  and  _458
REMARK  180  A    between atoms: _458  and  _459
REMARK  181  A    between atoms: _462  and  _464
REMARK  182  A    between atoms: _464  and  _465
REMARK  183  A    between atoms: _464  and  _467
REMARK  184  A    between atoms: _467  and  _468
REMARK  185  A    between atoms: _471  and  _473
REMARK  186  A    between atoms: _473  and  _474
REMARK  187  A    between atoms: _473  and  _476
REMARK  188  A    between atoms: _476  and  _477
REMARK  189  A    between atoms: _480  and  _482
REMARK  190  A    between atoms: _482  and  _483
REMARK  191  A    between atoms: _487  and  _488
REMARK  192  A    between atoms: _493  and  _495
REMARK  193  A    between atoms: _495  and  _496
REMARK  194  A    between atoms: _495  and  _498
REMARK  195  A    between atoms: _498  and  _499
REMARK  196  A    between atoms: _504  and  _506
REMARK  197  A    between atoms: _506  and  _507
REMARK  198  A    between atoms: _506  and  _509
REMARK  199  A    between atoms: _509  and  _510
REMARK  200  A    between atoms: _516  and  _518
REMARK  201  A    between atoms: _518  and  _519
REMARK  202  A    between atoms: _518  and  _521
REMARK  203  A    between atoms: _521  and  _522
REMARK  204  A    between atoms: _522  and  _523
REMARK  205  A    between atoms: _523  and  _524
REMARK  206  A    between atoms: _524  and  _525
REMARK  207  A    between atoms: _529  and  _531
REMARK  208  A    between atoms: _531  and  _532
REMARK  209  A    between atoms: _531  and  _534
REMARK  210  A    between atoms: _534  and  _535
REMARK  211  A    between atoms: _540  and  _542
REMARK  212  A    between atoms: _542  and  _543
REMARK  213  A    between atoms: _542  and  _545
REMARK  214  A    between atoms: _545  and  _546
REMARK  215  A    between atoms: _551  and  _553
REMARK  216  A    between atoms: _553  and  _554
REMARK  217  A    between atoms: _553  and  _556
REMARK  218  A    between atoms: _556  and  _557
REMARK  219  A    between atoms: _559  and  _561
REMARK  220  A    between atoms: _561  and  _562
REMARK  221  A    between atoms: _561  and  _564
REMARK  222  A    between atoms: _564  and  _565
REMARK  223  A    between atoms: _570  and  _572
REMARK  224  A    between atoms: _572  and  _573
REMARK  225  A    between atoms: _572  and  _575
REMARK  226  A    between atoms: _575  and  _576
REMARK  227  A    between atoms: _581  and  _582
REMARK  228  A    between atoms: _584  and  _586
REMARK  229  A    between atoms: _586  and  _587
REMARK  230  A    between atoms: _586  and  _589
REMARK  231  A    between atoms: _589  and  _590
REMARK  232  A    between atoms: _593  and  _595
REMARK  233  A    between atoms: _595  and  _596
REMARK  234  A    between atoms: _598  and  _600
REMARK  235  A    between atoms: _600  and  _601
REMARK  236  A    between atoms: _600  and  _603
REMARK  237  A    between atoms: _603  and  _604
REMARK  238  A    between atoms: _609  and  _611
REMARK  239  A    between atoms: _611  and  _612
REMARK  240  A    between atoms: _611  and  _614
REMARK  241  A    between atoms: _614  and  _615
REMARK  242  A    between atoms: _617  and  _619
REMARK  243  A    between atoms: _619  and  _620
REMARK  244  A    between atoms: _619  and  _622
REMARK  245  A    between atoms: _622  and  _623
REMARK  246  A    between atoms: _626  and  _628
REMARK  247  A    between atoms: _628  and  _629
REMARK  248  A    between atoms: _628  and  _631
REMARK  249  A    between atoms: _631  and  _632
REMARK  250  A    between atoms: _634  and  _636
REMARK  251  A    between atoms: _636  and  _637
REMARK  252  A    between atoms: _636  and  _639
REMARK  253  A    between atoms: _639  and  _640
REMARK  254  A    between atoms: _643  and  _645
REMARK  255  A    between atoms: _645  and  _646
REMARK  256  A    between atoms: _645  and  _648
REMARK  257  A    between atoms: _648  and  _649
REMARK                            x       y       z     vdW  Elec       q    Type
REMARK                         _______ _______ _______ _____ _____    ______ ____
ROOT
ATOM      1  O   HOH     1      21.005 -12.092  12.899  0.00  0.00    +0.000 OA
ENDROOT
TORSDOF 0
REMARK  Name = ../refined-set-2016/1ro7/1ro7_pocket.pdb
REMARK  257 active torsions:
REMARK  status: ('A' for Active; 'I' for Inactive)
REMARK    1  A    between atoms: _1  and  _3
REMARK    2  A    between atoms: _3  and  _4
REMARK    3  A    between atoms: _3  and  _6
REMARK    4  A    between atoms: _6  and  _7
REMARK    5  A    between atoms: _10  and  _12
REMARK    6  A    between atoms: _12  and  _13
REMARK    7  A    between atoms: _16  and  _18
REMARK    8  A    between atoms: _18  and  _19
REMARK    9  A    between atoms: _21  and  _23
REMARK   10  A    between atoms: _23  and  _24
REMARK   11  A    between atoms: _23  and  _26
REMARK   12  A    between atoms: _26  and  _27
REMARK   13  A    between atoms: _32  and  _34
REMARK   14  A    between atoms: _34  and  _35
REMARK   15  A    between atoms: _38  and  _39
REMARK   16  A    between atoms: _44  and  _46
REMARK   17  A    between atoms: _46  and  _47
REMARK   18  A    between atoms: _46  and  _49
REMARK   19  A    between atoms: _49  and  _50
REMARK   20  A    between atoms: _52  and  _54
REMARK   21  A    between atoms: _54  and  _55
REMARK   22  A    between atoms: _54  and  _57
REMARK   23  A    between atoms: _57  and  _58
REMARK   24  A    between atoms: _61  and  _63
REMARK   25  A    between atoms: _63  and  _64
REMARK   26  A    between atoms: _63  and  _66
REMARK   27  A    between atoms: _66  and  _67
REMARK   28  A    between atoms: _67  and  _68
REMARK   29  A    between atoms: _68  and  _69
REMARK   30  A    between atoms: _78  and  _80
REMARK   31  A    between atoms: _80  and  _81
REMARK   32  A    between atoms: _80  and  _83
REMARK   33  A    between atoms: _85  and  _87
REMARK   34  A    between atoms: _87  and  _88
REMARK   35  A    between atoms: _87  and  _90
REMARK   36  A    between atoms: _90  and  _91
REMARK   37  A    between atoms: _96  and  _98
REMARK   38  A    between atoms: _98  and  _99
REMARK   39  A    between atoms: _98  and  _101
REMARK   40  A    between atoms: _101  and  _102
REMARK   41  A    between atoms: _102  and  _103
REMARK   42  A    between atoms: _108  and  _110
REMARK   43  A    between atoms: _110  and  _111
REMARK   44  A    between atoms: _110  and  _113
REMARK   45  A    between atoms: _113  and  _114
REMARK   46  A    between atoms: _120  and  _122
REMARK   47  A    between atoms: _122  and  _123
REMARK   48  A    between atoms: _122  and  _125
REMARK   49  A    between atoms: _125  and  _126
REMARK   50  A    between atoms: _131  and  _132
REMARK   51  A    between atoms: _134  and  _136
REMARK   52  A    between atoms: _136  and  _137
REMARK   53  A    between atoms: _136  and  _139
REMARK   54  A    between atoms: _139  and  _140
REMARK   55  A    between atoms: _146  and  _148
REMARK   56  A    between atoms: _148  and  _149
REMARK   57  A    between atoms: _148  and  _151
REMARK   58  A    between atoms: _151  and  _152
REMARK   59  A    between atoms: _157  and  _158
REMARK   60  A    between atoms: _160  and  _162
REMARK   61  A    between atoms: _162  and  _163
REMARK   62  A    between atoms: _162  and  _165
REMARK   63  A    between atoms: _165  and  _166
REMARK   64  A    between atoms: _172  and  _173
REMARK   65  A    between atoms: _178  and  _180
REMARK   66  A    between atoms: _180  and  _181
REMARK   67  A    between atoms: _180  and  _183
REMARK   68  A    between atoms: _183  and  _184
REMARK   69  A    between atoms: _186  and  _188
REMARK   70  A    between atoms: _188  and  _189
REMARK   71  A    between atoms: _188  and  _191
REMARK   72  A    between atoms: _191  and  _192
REMARK   73  A    between atoms: _195  and  _197
REMARK   74  A    between atoms: _197  and  _198
REMARK   75  A    between atoms: _197  and  _200
REMARK   76  A    between atoms: _200  and  _201
REMARK   77  A    between atoms: _207  and  _209
REMARK   78  A    between atoms: _209  and  _210
REMARK   79  A    between atoms: _209  and  _212
REMARK   80  A    between atoms: _212  and  _213
REMARK   81  A    between atoms: _213  and  _214
REMARK   82  A    between atoms: _219  and  _221
REMARK   83  A    between atoms: _221  and  _222
REMARK   84  A    between atoms: _221  and  _224
REMARK   85  A    between atoms: _224  and  _225
REMARK   86  A    between atoms: _227  and  _229
REMARK   87  A    between atoms: _229  and  _230
REMARK   88  A    between atoms: _229  and  _232
REMARK   89  A    between atoms: _232  and  _233
REMARK   90  A    between atoms: _238  and  _239
REMARK   91  A    between atoms: _241  and  _243
REMARK   92  A    between atoms: _243  and  _244
REMARK   93  A    between atoms: _243  and  _246
REMARK   94  A    between atoms: _246  and  _247
REMARK   95  A    between atoms: _247  and  _248
REMARK   96  A    between atoms: _248  and  _249
REMARK   97  A    between atoms: _258  and  _260
REMARK   98  A    between atoms: _260  and  _261
REMARK   99  A    between atoms: _260  and  _263
REMARK  100  A    between atoms: _263  and  _264
REMARK  101  A    between atoms: _267  and  _269
REMARK  102  A    between atoms: _269  and  _270
REMARK  103  A    between atoms: _269  and  _272
REMARK  104  A    between atoms: _272  and  _273
REMARK  105  A    between atoms: _276  and  _278
REMARK  106  A    between atoms: _278  and  _279
REMARK  107  A    between atoms: _278  and  _281
REMARK  108  A    between atoms: _281  and  _282
REMARK  109  A    between atoms: _284  and  _286
REMARK  110  A    between atoms: _286  and  _287
REMARK  111  A    between atoms: _289  and  _291
REMARK  112  A    between atoms: _291  and  _292
REMARK  113  A    between atoms: _291  and  _294
REMARK  114  A    between atoms: _297  and  _299
REMARK  115  A    between atoms: _299  and  _300
REMARK  116  A    between atoms: _299  and  _302
REMARK  117  A    between atoms: _302  and  _303
REMARK  118  A    between atoms: _308  and  _309
REMARK  119  A    between atoms: _311  and  _313
REMARK  120  A    between atoms: _313  and  _314
REMARK  121  A    between atoms: _313  and  _316
REMARK  122  A    between atoms: _316  and  _317
REMARK  123  A    between atoms: _317  and  _318
REMARK  124  A    between atoms: _320  and  _322
REMARK  125  A    between atoms: _322  and  _323
REMARK  126  A    between atoms: _322  and  _325
REMARK  127  A    between atoms: _325  and  _326
REMARK  128  A    between atoms: _328  and  _330
REMARK  129  A    between atoms: _330  and  _331
REMARK  130  A    between atoms: _333  and  _335
REMARK  131  A    between atoms: _335  and  _336
REMARK  132  A    between atoms: _335  and  _338
REMARK  133  A    between atoms: _338  and  _339
REMARK  134  A    between atoms: _342  and  _344
REMARK  135  A    between atoms: _344  and  _345
REMARK  136  A    between atoms: _344  and  _347
REMARK  137  A    between atoms: _347  and  _348
REMARK  138  A    between atoms: _351  and  _353
REMARK  139  A    between atoms: _353  and  _354
REMARK  140  A    between atoms: _353  and  _356
REMARK  141  A    between atoms: _356  and  _357
REMARK  142  A    between atoms: _363  and  _365
REMARK  143  A    between atoms: _365  and  _366
REMARK  144  A    between atoms: _365  and  _368
REMARK  145  A    between atoms: _368  and  _369
REMARK  146  A    between atoms: _374  and  _375
REMARK  147  A    between atoms: _377  and  _379
REMARK  148  A    between atoms: _379  and  _380
REMARK  149  A    between atoms: _379  and  _382
REMARK  150  A    between atoms: _382  and  _383
REMARK  151  A    between atoms: _383  and  _384
REMARK  152  A    between atoms: _389  and  _391
REMARK  153  A    between atoms: _391  and  _392
REMARK  154  A    between atoms: _391  and  _394
REMARK  155  A    between atoms: _394  and  _395
REMARK  156  A    between atoms: _400  and  _402
REMARK  157  A    between atoms: _402  and  _403
REMARK  158  A    between atoms: _405  and  _407
REMARK  159  A    between atoms: _407  and  _408
REMARK  160  A    between atoms: _407  and  _410
REMARK  161  A    between atoms: _410  and  _411
REMARK  162  A    between atoms: _413  and  _415
REMARK  163  A    between atoms: _415  and  _416
REMARK  164  A    between atoms: _415  and  _418
REMARK  165  A    between atoms: _418  and  _419
REMARK  166  A    between atoms: _421  and  _423
REMARK  167  A    between atoms: _423  and  _424
REMARK  168  A    between atoms: _423  and  _426
REMARK  169  A    between atoms: _426  and  _427
REMARK  170  A    between atoms: _432  and  _433
REMARK  171  A    between atoms: _435  and  _437
REMARK  172  A    between atoms: _437  and  _438
REMARK  173  A    between atoms: _441  and  _443
REMARK  174  A    between atoms: _443  and  _444
REMARK  175  A    between atoms: _443  and  _446
REMARK  176  A    between atoms: _446  and  _447
REMARK  177  A    between atoms: _453  and  _455
REMARK  178  A    between atoms: _455  and  _456
REMARK  179  A    between atoms: _455  and  _458
REMARK  180  A    between atoms: _458  and  _459
REMARK  181  A    between atoms: _462  and  _464
REMARK  182  A    between atoms: _464  and  _465
REMARK  183  A    between atoms: _464  and  _467
REMARK  184  A    between atoms: _467  and  _468
REMARK  185  A    between atoms: _471  and  _473
REMARK  186  A    between atoms: _473  and  _474
REMARK  187  A    between atoms: _473  and  _476
REMARK  188  A    between atoms: _476  and  _477
REMARK  189  A    between atoms: _480  and  _482
REMARK  190  A    between atoms: _482  and  _483
REMARK  191  A    between atoms: _487  and  _488
REMARK  192  A    between atoms: _493  and  _495
REMARK  193  A    between atoms: _495  and  _496
REMARK  194  A    between atoms: _495  and  _498
REMARK  195  A    between atoms: _498  and  _499
REMARK  196  A    between atoms: _504  and  _506
REMARK  197  A    between atoms: _506  and  _507
REMARK  198  A    between atoms: _506  and  _509
REMARK  199  A    between atoms: _509  and  _510
REMARK  200  A    between atoms: _516  and  _518
REMARK  201  A    between atoms: _518  and  _519
REMARK  202  A    between atoms: _518  and  _521
REMARK  203  A    between atoms: _521  and  _522
REMARK  204  A    between atoms: _522  and  _523
REMARK  205  A    between atoms: _523  and  _524
REMARK  206  A    between atoms: _524  and  _525
REMARK  207  A    between atoms: _529  and  _531
REMARK  208  A    between atoms: _531  and  _532
REMARK  209  A    between atoms: _531  and  _534
REMARK  210  A    between atoms: _534  and  _535
REMARK  211  A    between atoms: _540  and  _542
REMARK  212  A    between atoms: _542  and  _543
REMARK  213  A    between atoms: _542  and  _545
REMARK  214  A    between atoms: _545  and  _546
REMARK  215  A    between atoms: _551  and  _553
REMARK  216  A    between atoms: _553  and  _554
REMARK  217  A    between atoms: _553  and  _556
REMARK  218  A    between atoms: _556  and  _557
REMARK  219  A    between atoms: _559  and  _561
REMARK  220  A    between atoms: _561  and  _562
REMARK  221  A    between atoms: _561  and  _564
REMARK  222  A    between atoms: _564  and  _565
REMARK  223  A    between atoms: _570  and  _572
REMARK  224  A    between atoms: _572  and  _573
REMARK  225  A    between atoms: _572  and  _575
REMARK  226  A    between atoms: _575  and  _576
REMARK  227  A    between atoms: _581  and  _582
REMARK  228  A    between atoms: _584  and  _586
REMARK  229  A    between atoms: _586  and  _587
REMARK  230  A    between atoms: _586  and  _589
REMARK  231  A    between atoms: _589  and  _590
REMARK  232  A    between atoms: _593  and  _595
REMARK  233  A    between atoms: _595  and  _596
REMARK  234  A    between atoms: _598  and  _600
REMARK  235  A    between atoms: _600  and  _601
REMARK  236  A    between atoms: _600  and  _603
REMARK  237  A    between atoms: _603  and  _604
REMARK  238  A    between atoms: _609  and  _611
REMARK  239  A    between atoms: _611  and  _612
REMARK  240  A    between atoms: _611  and  _614
REMARK  241  A    between atoms: _614  and  _615
REMARK  242  A    between atoms: _617  and  _619
REMARK  243  A    between atoms: _619  and  _620
REMARK  244  A    between atoms: _619  and  _622
REMARK  245  A    between atoms: _622  and  _623
REMARK  246  A    between atoms: _626  and  _628
REMARK  247  A    between atoms: _628  and  _629
REMARK  248  A    between atoms: _628  and  _631
REMARK  249  A    between atoms: _631  and  _632
REMARK  250  A    between atoms: _634  and  _636
REMARK  251  A    between atoms: _636  and  _637
REMARK  252  A    between atoms: _636  and  _639
REMARK  253  A    between atoms: _639  and  _640
REMARK  254  A    between atoms: _643  and  _645
REMARK  255  A    between atoms: _645  and  _646
REMARK  256  A    between atoms: _645  and  _648
REMARK  257  A    between atoms: _648  and  _649
REMARK                            x       y       z     vdW  Elec       q    Type
REMARK                         _______ _______ _______ _____ _____    ______ ____
ROOT
ATOM      1  O   HOH     1      28.964   4.964   9.397  0.00  0.00    +0.000 OA
ENDROOT
TORSDOF 0
REMARK  Name = ../refined-set-2016/1ro7/1ro7_pocket.pdb
REMARK  257 active torsions:
REMARK  status: ('A' for Active; 'I' for Inactive)
REMARK    1  A    between atoms: _1  and  _3
REMARK    2  A    between atoms: _3  and  _4
REMARK    3  A    between atoms: _3  and  _6
REMARK    4  A    between atoms: _6  and  _7
REMARK    5  A    between atoms: _10  and  _12
REMARK    6  A    between atoms: _12  and  _13
REMARK    7  A    between atoms: _16  and  _18
REMARK    8  A    between atoms: _18  and  _19
REMARK    9  A    between atoms: _21  and  _23
REMARK   10  A    between atoms: _23  and  _24
REMARK   11  A    between atoms: _23  and  _26
REMARK   12  A    between atoms: _26  and  _27
REMARK   13  A    between atoms: _32  and  _34
REMARK   14  A    between atoms: _34  and  _35
REMARK   15  A    between atoms: _38  and  _39
REMARK   16  A    between atoms: _44  and  _46
REMARK   17  A    between atoms: _46  and  _47
REMARK   18  A    between atoms: _46  and  _49
REMARK   19  A    between atoms: _49  and  _50
REMARK   20  A    between atoms: _52  and  _54
REMARK   21  A    between atoms: _54  and  _55
REMARK   22  A    between atoms: _54  and  _57
REMARK   23  A    between atoms: _57  and  _58
REMARK   24  A    between atoms: _61  and  _63
REMARK   25  A    between atoms: _63  and  _64
REMARK   26  A    between atoms: _63  and  _66
REMARK   27  A    between atoms: _66  and  _67
REMARK   28  A    between atoms: _67  and  _68
REMARK   29  A    between atoms: _68  and  _69
REMARK   30  A    between atoms: _78  and  _80
REMARK   31  A    between atoms: _80  and  _81
REMARK   32  A    between atoms: _80  and  _83
REMARK   33  A    between atoms: _85  and  _87
REMARK   34  A    between atoms: _87  and  _88
REMARK   35  A    between atoms: _87  and  _90
REMARK   36  A    between atoms: _90  and  _91
REMARK   37  A    between atoms: _96  and  _98
REMARK   38  A    between atoms: _98  and  _99
REMARK   39  A    between atoms: _98  and  _101
REMARK   40  A    between atoms: _101  and  _102
REMARK   41  A    between atoms: _102  and  _103
REMARK   42  A    between atoms: _108  and  _110
REMARK   43  A    between atoms: _110  and  _111
REMARK   44  A    between atoms: _110  and  _113
REMARK   45  A    between atoms: _113  and  _114
REMARK   46  A    between atoms: _120  and  _122
REMARK   47  A    between atoms: _122  and  _123
REMARK   48  A    between atoms: _122  and  _125
REMARK   49  A    between atoms: _125  and  _126
REMARK   50  A    between atoms: _131  and  _132
REMARK   51  A    between atoms: _134  and  _136
REMARK   52  A    between atoms: _136  and  _137
REMARK   53  A    between atoms: _136  and  _139
REMARK   54  A    between atoms: _139  and  _140
REMARK   55  A    between atoms: _146  and  _148
REMARK   56  A    between atoms: _148  and  _149
REMARK   57  A    between atoms: _148  and  _151
REMARK   58  A    between atoms: _151  and  _152
REMARK   59  A    between atoms: _157  and  _158
REMARK   60  A    between atoms: _160  and  _162
REMARK   61  A    between atoms: _162  and  _163
REMARK   62  A    between atoms: _162  and  _165
REMARK   63  A    between atoms: _165  and  _166
REMARK   64  A    between atoms: _172  and  _173
REMARK   65  A    between atoms: _178  and  _180
REMARK   66  A    between atoms: _180  and  _181
REMARK   67  A    between atoms: _180  and  _183
REMARK   68  A    between atoms: _183  and  _184
REMARK   69  A    between atoms: _186  and  _188
REMARK   70  A    between atoms: _188  and  _189
REMARK   71  A    between atoms: _188  and  _191
REMARK   72  A    between atoms: _191  and  _192
REMARK   73  A    between atoms: _195  and  _197
REMARK   74  A    between atoms: _197  and  _198
REMARK   75  A    between atoms: _197  and  _200
REMARK   76  A    between atoms: _200  and  _201
REMARK   77  A    between atoms: _207  and  _209
REMARK   78  A    between atoms: _209  and  _210
REMARK   79  A    between atoms: _209  and  _212
REMARK   80  A    between atoms: _212  and  _213
REMARK   81  A    between atoms: _213  and  _214
REMARK   82  A    between atoms: _219  and  _221
REMARK   83  A    between atoms: _221  and  _222
REMARK   84  A    between atoms: _221  and  _224
REMARK   85  A    between atoms: _224  and  _225
REMARK   86  A    between atoms: _227  and  _229
REMARK   87  A    between atoms: _229  and  _230
REMARK   88  A    between atoms: _229  and  _232
REMARK   89  A    between atoms: _232  and  _233
REMARK   90  A    between atoms: _238  and  _239
REMARK   91  A    between atoms: _241  and  _243
REMARK   92  A    between atoms: _243  and  _244
REMARK   93  A    between atoms: _243  and  _246
REMARK   94  A    between atoms: _246  and  _247
REMARK   95  A    between atoms: _247  and  _248
REMARK   96  A    between atoms: _248  and  _249
REMARK   97  A    between atoms: _258  and  _260
REMARK   98  A    between atoms: _260  and  _261
REMARK   99  A    between atoms: _260  and  _263
REMARK  100  A    between atoms: _263  and  _264
REMARK  101  A    between atoms: _267  and  _269
REMARK  102  A    between atoms: _269  and  _270
REMARK  103  A    between atoms: _269  and  _272
REMARK  104  A    between atoms: _272  and  _273
REMARK  105  A    between atoms: _276  and  _278
REMARK  106  A    between atoms: _278  and  _279
REMARK  107  A    between atoms: _278  and  _281
REMARK  108  A    between atoms: _281  and  _282
REMARK  109  A    between atoms: _284  and  _286
REMARK  110  A    between atoms: _286  and  _287
REMARK  111  A    between atoms: _289  and  _291
REMARK  112  A    between atoms: _291  and  _292
REMARK  113  A    between atoms: _291  and  _294
REMARK  114  A    between atoms: _297  and  _299
REMARK  115  A    between atoms: _299  and  _300
REMARK  116  A    between atoms: _299  and  _302
REMARK  117  A    between atoms: _302  and  _303
REMARK  118  A    between atoms: _308  and  _309
REMARK  119  A    between atoms: _311  and  _313
REMARK  120  A    between atoms: _313  and  _314
REMARK  121  A    between atoms: _313  and  _316
REMARK  122  A    between atoms: _316  and  _317
REMARK  123  A    between atoms: _317  and  _318
REMARK  124  A    between atoms: _320  and  _322
REMARK  125  A    between atoms: _322  and  _323
REMARK  126  A    between atoms: _322  and  _325
REMARK  127  A    between atoms: _325  and  _326
REMARK  128  A    between atoms: _328  and  _330
REMARK  129  A    between atoms: _330  and  _331
REMARK  130  A    between atoms: _333  and  _335
REMARK  131  A    between atoms: _335  and  _336
REMARK  132  A    between atoms: _335  and  _338
REMARK  133  A    between atoms: _338  and  _339
REMARK  134  A    between atoms: _342  and  _344
REMARK  135  A    between atoms: _344  and  _345
REMARK  136  A    between atoms: _344  and  _347
REMARK  137  A    between atoms: _347  and  _348
REMARK  138  A    between atoms: _351  and  _353
REMARK  139  A    between atoms: _353  and  _354
REMARK  140  A    between atoms: _353  and  _356
REMARK  141  A    between atoms: _356  and  _357
REMARK  142  A    between atoms: _363  and  _365
REMARK  143  A    between atoms: _365  and  _366
REMARK  144  A    between atoms: _365  and  _368
REMARK  145  A    between atoms: _368  and  _369
REMARK  146  A    between atoms: _374  and  _375
REMARK  147  A    between atoms: _377  and  _379
REMARK  148  A    between atoms: _379  and  _380
REMARK  149  A    between atoms: _379  and  _382
REMARK  150  A    between atoms: _382  and  _383
REMARK  151  A    between atoms: _383  and  _384
REMARK  152  A    between atoms: _389  and  _391
REMARK  153  A    between atoms: _391  and  _392
REMARK  154  A    between atoms: _391  and  _394
REMARK  155  A    between atoms: _394  and  _395
REMARK  156  A    between atoms: _400  and  _402
REMARK  157  A    between atoms: _402  and  _403
REMARK  158  A    between atoms: _405  and  _407
REMARK  159  A    between atoms: _407  and  _408
REMARK  160  A    between atoms: _407  and  _410
REMARK  161  A    between atoms: _410  and  _411
REMARK  162  A    between atoms: _413  and  _415
REMARK  163  A    between atoms: _415  and  _416
REMARK  164  A    between atoms: _415  and  _418
REMARK  165  A    between atoms: _418  and  _419
REMARK  166  A    between atoms: _421  and  _423
REMARK  167  A    between atoms: _423  and  _424
REMARK  168  A    between atoms: _423  and  _426
REMARK  169  A    between atoms: _426  and  _427
REMARK  170  A    between atoms: _432  and  _433
REMARK  171  A    between atoms: _435  and  _437
REMARK  172  A    between atoms: _437  and  _438
REMARK  173  A    between atoms: _441  and  _443
REMARK  174  A    between atoms: _443  and  _444
REMARK  175  A    between atoms: _443  and  _446
REMARK  176  A    between atoms: _446  and  _447
REMARK  177  A    between atoms: _453  and  _455
REMARK  178  A    between atoms: _455  and  _456
REMARK  179  A    between atoms: _455  and  _458
REMARK  180  A    between atoms: _458  and  _459
REMARK  181  A    between atoms: _462  and  _464
REMARK  182  A    between atoms: _464  and  _465
REMARK  183  A    between atoms: _464  and  _467
REMARK  184  A    between atoms: _467  and  _468
REMARK  185  A    between atoms: _471  and  _473
REMARK  186  A    between atoms: _473  and  _474
REMARK  187  A    between atoms: _473  and  _476
REMARK  188  A    between atoms: _476  and  _477
REMARK  189  A    between atoms: _480  and  _482
REMARK  190  A    between atoms: _482  and  _483
REMARK  191  A    between atoms: _487  and  _488
REMARK  192  A    between atoms: _493  and  _495
REMARK  193  A    between atoms: _495  and  _496
REMARK  194  A    between atoms: _495  and  _498
REMARK  195  A    between atoms: _498  and  _499
REMARK  196  A    between atoms: _504  and  _506
REMARK  197  A    between atoms: _506  and  _507
REMARK  198  A    between atoms: _506  and  _509
REMARK  199  A    between atoms: _509  and  _510
REMARK  200  A    between atoms: _516  and  _518
REMARK  201  A    between atoms: _518  and  _519
REMARK  202  A    between atoms: _518  and  _521
REMARK  203  A    between atoms: _521  and  _522
REMARK  204  A    between atoms: _522  and  _523
REMARK  205  A    between atoms: _523  and  _524
REMARK  206  A    between atoms: _524  and  _525
REMARK  207  A    between atoms: _529  and  _531
REMARK  208  A    between atoms: _531  and  _532
REMARK  209  A    between atoms: _531  and  _534
REMARK  210  A    between atoms: _534  and  _535
REMARK  211  A    between atoms: _540  and  _542
REMARK  212  A    between atoms: _542  and  _543
REMARK  213  A    between atoms: _542  and  _545
REMARK  214  A    between atoms: _545  and  _546
REMARK  215  A    between atoms: _551  and  _553
REMARK  216  A    between atoms: _553  and  _554
REMARK  217  A    between atoms: _553  and  _556
REMARK  218  A    between atoms: _556  and  _557
REMARK  219  A    between atoms: _559  and  _561
REMARK  220  A    between atoms: _561  and  _562
REMARK  221  A    between atoms: _561  and  _564
REMARK  222  A    between atoms: _564  and  _565
REMARK  223  A    between atoms: _570  and  _572
REMARK  224  A    between atoms: _572  and  _573
REMARK  225  A    between atoms: _572  and  _575
REMARK  226  A    between atoms: _575  and  _576
REMARK  227  A    between atoms: _581  and  _582
REMARK  228  A    between atoms: _584  and  _586
REMARK  229  A    between atoms: _586  and  _587
REMARK  230  A    between atoms: _586  and  _589
REMARK  231  A    between atoms: _589  and  _590
REMARK  232  A    between atoms: _593  and  _595
REMARK  233  A    between atoms: _595  and  _596
REMARK  234  A    between atoms: _598  and  _600
REMARK  235  A    between atoms: _600  and  _601
REMARK  236  A    between atoms: _600  and  _603
REMARK  237  A    between atoms: _603  and  _604
REMARK  238  A    between atoms: _609  and  _611
REMARK  239  A    between atoms: _611  and  _612
REMARK  240  A    between atoms: _611  and  _614
REMARK  241  A    between atoms: _614  and  _615
REMARK  242  A    between atoms: _617  and  _619
REMARK  243  A    between atoms: _619  and  _620
REMARK  244  A    between atoms: _619  and  _622
REMARK  245  A    between atoms: _622  and  _623
REMARK  246  A    between atoms: _626  and  _628
REMARK  247  A    between atoms: _628  and  _629
REMARK  248  A    between atoms: _628  and  _631
REMARK  249  A    between atoms: _631  and  _632
REMARK  250  A    between atoms: _634  and  _636
REMARK  251  A    between atoms: _636  and  _637
REMARK  252  A    between atoms: _636  and  _639
REMARK  253  A    between atoms: _639  and  _640
REMARK  254  A    between atoms: _643  and  _645
REMARK  255  A    between atoms: _645  and  _646
REMARK  256  A    between atoms: _645  and  _648
REMARK  257  A    between atoms: _648  and  _649
REMARK                            x       y       z     vdW  Elec       q    Type
REMARK                         _______ _______ _______ _____ _____    ______ ____
ROOT
ATOM      1  O   HOH     1      21.018   3.704   6.540  0.00  0.00    +0.000 OA
ENDROOT
TORSDOF 0
REMARK  Name = ../refined-set-2016/1ro7/1ro7_pocket.pdb
REMARK  257 active torsions:
REMARK  status: ('A' for Active; 'I' for Inactive)
REMARK    1  A    between atoms: _1  and  _3
REMARK    2  A    between atoms: _3  and  _4
REMARK    3  A    between atoms: _3  and  _6
REMARK    4  A    between atoms: _6  and  _7
REMARK    5  A    between atoms: _10  and  _12
REMARK    6  A    between atoms: _12  and  _13
REMARK    7  A    between atoms: _16  and  _18
REMARK    8  A    between atoms: _18  and  _19
REMARK    9  A    between atoms: _21  and  _23
REMARK   10  A    between atoms: _23  and  _24
REMARK   11  A    between atoms: _23  and  _26
REMARK   12  A    between atoms: _26  and  _27
REMARK   13  A    between atoms: _32  and  _34
REMARK   14  A    between atoms: _34  and  _35
REMARK   15  A    between atoms: _38  and  _39
REMARK   16  A    between atoms: _44  and  _46
REMARK   17  A    between atoms: _46  and  _47
REMARK   18  A    between atoms: _46  and  _49
REMARK   19  A    between atoms: _49  and  _50
REMARK   20  A    between atoms: _52  and  _54
REMARK   21  A    between atoms: _54  and  _55
REMARK   22  A    between atoms: _54  and  _57
REMARK   23  A    between atoms: _57  and  _58
REMARK   24  A    between atoms: _61  and  _63
REMARK   25  A    between atoms: _63  and  _64
REMARK   26  A    between atoms: _63  and  _66
REMARK   27  A    between atoms: _66  and  _67
REMARK   28  A    between atoms: _67  and  _68
REMARK   29  A    between atoms: _68  and  _69
REMARK   30  A    between atoms: _78  and  _80
REMARK   31  A    between atoms: _80  and  _81
REMARK   32  A    between atoms: _80  and  _83
REMARK   33  A    between atoms: _85  and  _87
REMARK   34  A    between atoms: _87  and  _88
REMARK   35  A    between atoms: _87  and  _90
REMARK   36  A    between atoms: _90  and  _91
REMARK   37  A    between atoms: _96  and  _98
REMARK   38  A    between atoms: _98  and  _99
REMARK   39  A    between atoms: _98  and  _101
REMARK   40  A    between atoms: _101  and  _102
REMARK   41  A    between atoms: _102  and  _103
REMARK   42  A    between atoms: _108  and  _110
REMARK   43  A    between atoms: _110  and  _111
REMARK   44  A    between atoms: _110  and  _113
REMARK   45  A    between atoms: _113  and  _114
REMARK   46  A    between atoms: _120  and  _122
REMARK   47  A    between atoms: _122  and  _123
REMARK   48  A    between atoms: _122  and  _125
REMARK   49  A    between atoms: _125  and  _126
REMARK   50  A    between atoms: _131  and  _132
REMARK   51  A    between atoms: _134  and  _136
REMARK   52  A    between atoms: _136  and  _137
REMARK   53  A    between atoms: _136  and  _139
REMARK   54  A    between atoms: _139  and  _140
REMARK   55  A    between atoms: _146  and  _148
REMARK   56  A    between atoms: _148  and  _149
REMARK   57  A    between atoms: _148  and  _151
REMARK   58  A    between atoms: _151  and  _152
REMARK   59  A    between atoms: _157  and  _158
REMARK   60  A    between atoms: _160  and  _162
REMARK   61  A    between atoms: _162  and  _163
REMARK   62  A    between atoms: _162  and  _165
REMARK   63  A    between atoms: _165  and  _166
REMARK   64  A    between atoms: _172  and  _173
REMARK   65  A    between atoms: _178  and  _180
REMARK   66  A    between atoms: _180  and  _181
REMARK   67  A    between atoms: _180  and  _183
REMARK   68  A    between atoms: _183  and  _184
REMARK   69  A    between atoms: _186  and  _188
REMARK   70  A    between atoms: _188  and  _189
REMARK   71  A    between atoms: _188  and  _191
REMARK   72  A    between atoms: _191  and  _192
REMARK   73  A    between atoms: _195  and  _197
REMARK   74  A    between atoms: _197  and  _198
REMARK   75  A    between atoms: _197  and  _200
REMARK   76  A    between atoms: _200  and  _201
REMARK   77  A    between atoms: _207  and  _209
REMARK   78  A    between atoms: _209  and  _210
REMARK   79  A    between atoms: _209  and  _212
REMARK   80  A    between atoms: _212  and  _213
REMARK   81  A    between atoms: _213  and  _214
REMARK   82  A    between atoms: _219  and  _221
REMARK   83  A    between atoms: _221  and  _222
REMARK   84  A    between atoms: _221  and  _224
REMARK   85  A    between atoms: _224  and  _225
REMARK   86  A    between atoms: _227  and  _229
REMARK   87  A    between atoms: _229  and  _230
REMARK   88  A    between atoms: _229  and  _232
REMARK   89  A    between atoms: _232  and  _233
REMARK   90  A    between atoms: _238  and  _239
REMARK   91  A    between atoms: _241  and  _243
REMARK   92  A    between atoms: _243  and  _244
REMARK   93  A    between atoms: _243  and  _246
REMARK   94  A    between atoms: _246  and  _247
REMARK   95  A    between atoms: _247  and  _248
REMARK   96  A    between atoms: _248  and  _249
REMARK   97  A    between atoms: _258  and  _260
REMARK   98  A    between atoms: _260  and  _261
REMARK   99  A    between atoms: _260  and  _263
REMARK  100  A    between atoms: _263  and  _264
REMARK  101  A    between atoms: _267  and  _269
REMARK  102  A    between atoms: _269  and  _270
REMARK  103  A    between atoms: _269  and  _272
REMARK  104  A    between atoms: _272  and  _273
REMARK  105  A    between atoms: _276  and  _278
REMARK  106  A    between atoms: _278  and  _279
REMARK  107  A    between atoms: _278  and  _281
REMARK  108  A    between atoms: _281  and  _282
REMARK  109  A    between atoms: _284  and  _286
REMARK  110  A    between atoms: _286  and  _287
REMARK  111  A    between atoms: _289  and  _291
REMARK  112  A    between atoms: _291  and  _292
REMARK  113  A    between atoms: _291  and  _294
REMARK  114  A    between atoms: _297  and  _299
REMARK  115  A    between atoms: _299  and  _300
REMARK  116  A    between atoms: _299  and  _302
REMARK  117  A    between atoms: _302  and  _303
REMARK  118  A    between atoms: _308  and  _309
REMARK  119  A    between atoms: _311  and  _313
REMARK  120  A    between atoms: _313  and  _314
REMARK  121  A    between atoms: _313  and  _316
REMARK  122  A    between atoms: _316  and  _317
REMARK  123  A    between atoms: _317  and  _318
REMARK  124  A    between atoms: _320  and  _322
REMARK  125  A    between atoms: _322  and  _323
REMARK  126  A    between atoms: _322  and  _325
REMARK  127  A    between atoms: _325  and  _326
REMARK  128  A    between atoms: _328  and  _330
REMARK  129  A    between atoms: _330  and  _331
REMARK  130  A    between atoms: _333  and  _335
REMARK  131  A    between atoms: _335  and  _336
REMARK  132  A    between atoms: _335  and  _338
REMARK  133  A    between atoms: _338  and  _339
REMARK  134  A    between atoms: _342  and  _344
REMARK  135  A    between atoms: _344  and  _345
REMARK  136  A    between atoms: _344  and  _347
REMARK  137  A    between atoms: _347  and  _348
REMARK  138  A    between atoms: _351  and  _353
REMARK  139  A    between atoms: _353  and  _354
REMARK  140  A    between atoms: _353  and  _356
REMARK  141  A    between atoms: _356  and  _357
REMARK  142  A    between atoms: _363  and  _365
REMARK  143  A    between atoms: _365  and  _366
REMARK  144  A    between atoms: _365  and  _368
REMARK  145  A    between atoms: _368  and  _369
REMARK  146  A    between atoms: _374  and  _375
REMARK  147  A    between atoms: _377  and  _379
REMARK  148  A    between atoms: _379  and  _380
REMARK  149  A    between atoms: _379  and  _382
REMARK  150  A    between atoms: _382  and  _383
REMARK  151  A    between atoms: _383  and  _384
REMARK  152  A    between atoms: _389  and  _391
REMARK  153  A    between atoms: _391  and  _392
REMARK  154  A    between atoms: _391  and  _394
REMARK  155  A    between atoms: _394  and  _395
REMARK  156  A    between atoms: _400  and  _402
REMARK  157  A    between atoms: _402  and  _403
REMARK  158  A    between atoms: _405  and  _407
REMARK  159  A    between atoms: _407  and  _408
REMARK  160  A    between atoms: _407  and  _410
REMARK  161  A    between atoms: _410  and  _411
REMARK  162  A    between atoms: _413  and  _415
REMARK  163  A    between atoms: _415  and  _416
REMARK  164  A    between atoms: _415  and  _418
REMARK  165  A    between atoms: _418  and  _419
REMARK  166  A    between atoms: _421  and  _423
REMARK  167  A    between atoms: _423  and  _424
REMARK  168  A    between atoms: _423  and  _426
REMARK  169  A    between atoms: _426  and  _427
REMARK  170  A    between atoms: _432  and  _433
REMARK  171  A    between atoms: _435  and  _437
REMARK  172  A    between atoms: _437  and  _438
REMARK  173  A    between atoms: _441  and  _443
REMARK  174  A    between atoms: _443  and  _444
REMARK  175  A    between atoms: _443  and  _446
REMARK  176  A    between atoms: _446  and  _447
REMARK  177  A    between atoms: _453  and  _455
REMARK  178  A    between atoms: _455  and  _456
REMARK  179  A    between atoms: _455  and  _458
REMARK  180  A    between atoms: _458  and  _459
REMARK  181  A    between atoms: _462  and  _464
REMARK  182  A    between atoms: _464  and  _465
REMARK  183  A    between atoms: _464  and  _467
REMARK  184  A    between atoms: _467  and  _468
REMARK  185  A    between atoms: _471  and  _473
REMARK  186  A    between atoms: _473  and  _474
REMARK  187  A    between atoms: _473  and  _476
REMARK  188  A    between atoms: _476  and  _477
REMARK  189  A    between atoms: _480  and  _482
REMARK  190  A    between atoms: _482  and  _483
REMARK  191  A    between atoms: _487  and  _488
REMARK  192  A    between atoms: _493  and  _495
REMARK  193  A    between atoms: _495  and  _496
REMARK  194  A    between atoms: _495  and  _498
REMARK  195  A    between atoms: _498  and  _499
REMARK  196  A    between atoms: _504  and  _506
REMARK  197  A    between atoms: _506  and  _507
REMARK  198  A    between atoms: _506  and  _509
REMARK  199  A    between atoms: _509  and  _510
REMARK  200  A    between atoms: _516  and  _518
REMARK  201  A    between atoms: _518  and  _519
REMARK  202  A    between atoms: _518  and  _521
REMARK  203  A    between atoms: _521  and  _522
REMARK  204  A    between atoms: _522  and  _523
REMARK  205  A    between atoms: _523  and  _524
REMARK  206  A    between atoms: _524  and  _525
REMARK  207  A    between atoms: _529  and  _531
REMARK  208  A    between atoms: _531  and  _532
REMARK  209  A    between atoms: _531  and  _534
REMARK  210  A    between atoms: _534  and  _535
REMARK  211  A    between atoms: _540  and  _542
REMARK  212  A    between atoms: _542  and  _543
REMARK  213  A    between atoms: _542  and  _545
REMARK  214  A    between atoms: _545  and  _546
REMARK  215  A    between atoms: _551  and  _553
REMARK  216  A    between atoms: _553  and  _554
REMARK  217  A    between atoms: _553  and  _556
REMARK  218  A    between atoms: _556  and  _557
REMARK  219  A    between atoms: _559  and  _561
REMARK  220  A    between atoms: _561  and  _562
REMARK  221  A    between atoms: _561  and  _564
REMARK  222  A    between atoms: _564  and  _565
REMARK  223  A    between atoms: _570  and  _572
REMARK  224  A    between atoms: _572  and  _573
REMARK  225  A    between atoms: _572  and  _575
REMARK  226  A    between atoms: _575  and  _576
REMARK  227  A    between atoms: _581  and  _582
REMARK  228  A    between atoms: _584  and  _586
REMARK  229  A    between atoms: _586  and  _587
REMARK  230  A    between atoms: _586  and  _589
REMARK  231  A    between atoms: _589  and  _590
REMARK  232  A    between atoms: _593  and  _595
REMARK  233  A    between atoms: _595  and  _596
REMARK  234  A    between atoms: _598  and  _600
REMARK  235  A    between atoms: _600  and  _601
REMARK  236  A    between atoms: _600  and  _603
REMARK  237  A    between atoms: _603  and  _604
REMARK  238  A    between atoms: _609  and  _611
REMARK  239  A    between atoms: _611  and  _612
REMARK  240  A    between atoms: _611  and  _614
REMARK  241  A    between atoms: _614  and  _615
REMARK  242  A    between atoms: _617  and  _619
REMARK  243  A    between atoms: _619  and  _620
REMARK  244  A    between atoms: _619  and  _622
REMARK  245  A    between atoms: _622  and  _623
REMARK  246  A    between atoms: _626  and  _628
REMARK  247  A    between atoms: _628  and  _629
REMARK  248  A    between atoms: _628  and  _631
REMARK  249  A    between atoms: _631  and  _632
REMARK  250  A    between atoms: _634  and  _636
REMARK  251  A    between atoms: _636  and  _637
REMARK  252  A    between atoms: _636  and  _639
REMARK  253  A    between atoms: _639  and  _640
REMARK  254  A    between atoms: _643  and  _645
REMARK  255  A    between atoms: _645  and  _646
REMARK  256  A    between atoms: _645  and  _648
REMARK  257  A    between atoms: _648  and  _649
REMARK                            x       y       z     vdW  Elec       q    Type
REMARK                         _______ _______ _______ _____ _____    ______ ____
ROOT
ATOM      1  O   HOH     1      21.320 -14.589  12.420  0.00  0.00    +0.000 OA
ENDROOT
TORSDOF 0
REMARK  Name = ../refined-set-2016/1ro7/1ro7_pocket.pdb
REMARK  257 active torsions:
REMARK  status: ('A' for Active; 'I' for Inactive)
REMARK    1  A    between atoms: _1  and  _3
REMARK    2  A    between atoms: _3  and  _4
REMARK    3  A    between atoms: _3  and  _6
REMARK    4  A    between atoms: _6  and  _7
REMARK    5  A    between atoms: _10  and  _12
REMARK    6  A    between atoms: _12  and  _13
REMARK    7  A    between atoms: _16  and  _18
REMARK    8  A    between atoms: _18  and  _19
REMARK    9  A    between atoms: _21  and  _23
REMARK   10  A    between atoms: _23  and  _24
REMARK   11  A    between atoms: _23  and  _26
REMARK   12  A    between atoms: _26  and  _27
REMARK   13  A    between atoms: _32  and  _34
REMARK   14  A    between atoms: _34  and  _35
REMARK   15  A    between atoms: _38  and  _39
REMARK   16  A    between atoms: _44  and  _46
REMARK   17  A    between atoms: _46  and  _47
REMARK   18  A    between atoms: _46  and  _49
REMARK   19  A    between atoms: _49  and  _50
REMARK   20  A    between atoms: _52  and  _54
REMARK   21  A    between atoms: _54  and  _55
REMARK   22  A    between atoms: _54  and  _57
REMARK   23  A    between atoms: _57  and  _58
REMARK   24  A    between atoms: _61  and  _63
REMARK   25  A    between atoms: _63  and  _64
REMARK   26  A    between atoms: _63  and  _66
REMARK   27  A    between atoms: _66  and  _67
REMARK   28  A    between atoms: _67  and  _68
REMARK   29  A    between atoms: _68  and  _69
REMARK   30  A    between atoms: _78  and  _80
REMARK   31  A    between atoms: _80  and  _81
REMARK   32  A    between atoms: _80  and  _83
REMARK   33  A    between atoms: _85  and  _87
REMARK   34  A    between atoms: _87  and  _88
REMARK   35  A    between atoms: _87  and  _90
REMARK   36  A    between atoms: _90  and  _91
REMARK   37  A    between atoms: _96  and  _98
REMARK   38  A    between atoms: _98  and  _99
REMARK   39  A    between atoms: _98  and  _101
REMARK   40  A    between atoms: _101  and  _102
REMARK   41  A    between atoms: _102  and  _103
REMARK   42  A    between atoms: _108  and  _110
REMARK   43  A    between atoms: _110  and  _111
REMARK   44  A    between atoms: _110  and  _113
REMARK   45  A    between atoms: _113  and  _114
REMARK   46  A    between atoms: _120  and  _122
REMARK   47  A    between atoms: _122  and  _123
REMARK   48  A    between atoms: _122  and  _125
REMARK   49  A    between atoms: _125  and  _126
REMARK   50  A    between atoms: _131  and  _132
REMARK   51  A    between atoms: _134  and  _136
REMARK   52  A    between atoms: _136  and  _137
REMARK   53  A    between atoms: _136  and  _139
REMARK   54  A    between atoms: _139  and  _140
REMARK   55  A    between atoms: _146  and  _148
REMARK   56  A    between atoms: _148  and  _149
REMARK   57  A    between atoms: _148  and  _151
REMARK   58  A    between atoms: _151  and  _152
REMARK   59  A    between atoms: _157  and  _158
REMARK   60  A    between atoms: _160  and  _162
REMARK   61  A    between atoms: _162  and  _163
REMARK   62  A    between atoms: _162  and  _165
REMARK   63  A    between atoms: _165  and  _166
REMARK   64  A    between atoms: _172  and  _173
REMARK   65  A    between atoms: _178  and  _180
REMARK   66  A    between atoms: _180  and  _181
REMARK   67  A    between atoms: _180  and  _183
REMARK   68  A    between atoms: _183  and  _184
REMARK   69  A    between atoms: _186  and  _188
REMARK   70  A    between atoms: _188  and  _189
REMARK   71  A    between atoms: _188  and  _191
REMARK   72  A    between atoms: _191  and  _192
REMARK   73  A    between atoms: _195  and  _197
REMARK   74  A    between atoms: _197  and  _198
REMARK   75  A    between atoms: _197  and  _200
REMARK   76  A    between atoms: _200  and  _201
REMARK   77  A    between atoms: _207  and  _209
REMARK   78  A    between atoms: _209  and  _210
REMARK   79  A    between atoms: _209  and  _212
REMARK   80  A    between atoms: _212  and  _213
REMARK   81  A    between atoms: _213  and  _214
REMARK   82  A    between atoms: _219  and  _221
REMARK   83  A    between atoms: _221  and  _222
REMARK   84  A    between atoms: _221  and  _224
REMARK   85  A    between atoms: _224  and  _225
REMARK   86  A    between atoms: _227  and  _229
REMARK   87  A    between atoms: _229  and  _230
REMARK   88  A    between atoms: _229  and  _232
REMARK   89  A    between atoms: _232  and  _233
REMARK   90  A    between atoms: _238  and  _239
REMARK   91  A    between atoms: _241  and  _243
REMARK   92  A    between atoms: _243  and  _244
REMARK   93  A    between atoms: _243  and  _246
REMARK   94  A    between atoms: _246  and  _247
REMARK   95  A    between atoms: _247  and  _248
REMARK   96  A    between atoms: _248  and  _249
REMARK   97  A    between atoms: _258  and  _260
REMARK   98  A    between atoms: _260  and  _261
REMARK   99  A    between atoms: _260  and  _263
REMARK  100  A    between atoms: _263  and  _264
REMARK  101  A    between atoms: _267  and  _269
REMARK  102  A    between atoms: _269  and  _270
REMARK  103  A    between atoms: _269  and  _272
REMARK  104  A    between atoms: _272  and  _273
REMARK  105  A    between atoms: _276  and  _278
REMARK  106  A    between atoms: _278  and  _279
REMARK  107  A    between atoms: _278  and  _281
REMARK  108  A    between atoms: _281  and  _282
REMARK  109  A    between atoms: _284  and  _286
REMARK  110  A    between atoms: _286  and  _287
REMARK  111  A    between atoms: _289  and  _291
REMARK  112  A    between atoms: _291  and  _292
REMARK  113  A    between atoms: _291  and  _294
REMARK  114  A    between atoms: _297  and  _299
REMARK  115  A    between atoms: _299  and  _300
REMARK  116  A    between atoms: _299  and  _302
REMARK  117  A    between atoms: _302  and  _303
REMARK  118  A    between atoms: _308  and  _309
REMARK  119  A    between atoms: _311  and  _313
REMARK  120  A    between atoms: _313  and  _314
REMARK  121  A    between atoms: _313  and  _316
REMARK  122  A    between atoms: _316  and  _317
REMARK  123  A    between atoms: _317  and  _318
REMARK  124  A    between atoms: _320  and  _322
REMARK  125  A    between atoms: _322  and  _323
REMARK  126  A    between atoms: _322  and  _325
REMARK  127  A    between atoms: _325  and  _326
REMARK  128  A    between atoms: _328  and  _330
REMARK  129  A    between atoms: _330  and  _331
REMARK  130  A    between atoms: _333  and  _335
REMARK  131  A    between atoms: _335  and  _336
REMARK  132  A    between atoms: _335  and  _338
REMARK  133  A    between atoms: _338  and  _339
REMARK  134  A    between atoms: _342  and  _344
REMARK  135  A    between atoms: _344  and  _345
REMARK  136  A    between atoms: _344  and  _347
REMARK  137  A    between atoms: _347  and  _348
REMARK  138  A    between atoms: _351  and  _353
REMARK  139  A    between atoms: _353  and  _354
REMARK  140  A    between atoms: _353  and  _356
REMARK  141  A    between atoms: _356  and  _357
REMARK  142  A    between atoms: _363  and  _365
REMARK  143  A    between atoms: _365  and  _366
REMARK  144  A    between atoms: _365  and  _368
REMARK  145  A    between atoms: _368  and  _369
REMARK  146  A    between atoms: _374  and  _375
REMARK  147  A    between atoms: _377  and  _379
REMARK  148  A    between atoms: _379  and  _380
REMARK  149  A    between atoms: _379  and  _382
REMARK  150  A    between atoms: _382  and  _383
REMARK  151  A    between atoms: _383  and  _384
REMARK  152  A    between atoms: _389  and  _391
REMARK  153  A    between atoms: _391  and  _392
REMARK  154  A    between atoms: _391  and  _394
REMARK  155  A    between atoms: _394  and  _395
REMARK  156  A    between atoms: _400  and  _402
REMARK  157  A    between atoms: _402  and  _403
REMARK  158  A    between atoms: _405  and  _407
REMARK  159  A    between atoms: _407  and  _408
REMARK  160  A    between atoms: _407  and  _410
REMARK  161  A    between atoms: _410  and  _411
REMARK  162  A    between atoms: _413  and  _415
REMARK  163  A    between atoms: _415  and  _416
REMARK  164  A    between atoms: _415  and  _418
REMARK  165  A    between atoms: _418  and  _419
REMARK  166  A    between atoms: _421  and  _423
REMARK  167  A    between atoms: _423  and  _424
REMARK  168  A    between atoms: _423  and  _426
REMARK  169  A    between atoms: _426  and  _427
REMARK  170  A    between atoms: _432  and  _433
REMARK  171  A    between atoms: _435  and  _437
REMARK  172  A    between atoms: _437  and  _438
REMARK  173  A    between atoms: _441  and  _443
REMARK  174  A    between atoms: _443  and  _444
REMARK  175  A    between atoms: _443  and  _446
REMARK  176  A    between atoms: _446  and  _447
REMARK  177  A    between atoms: _453  and  _455
REMARK  178  A    between atoms: _455  and  _456
REMARK  179  A    between atoms: _455  and  _458
REMARK  180  A    between atoms: _458  and  _459
REMARK  181  A    between atoms: _462  and  _464
REMARK  182  A    between atoms: _464  and  _465
REMARK  183  A    between atoms: _464  and  _467
REMARK  184  A    between atoms: _467  and  _468
REMARK  185  A    between atoms: _471  and  _473
REMARK  186  A    between atoms: _473  and  _474
REMARK  187  A    between atoms: _473  and  _476
REMARK  188  A    between atoms: _476  and  _477
REMARK  189  A    between atoms: _480  and  _482
REMARK  190  A    between atoms: _482  and  _483
REMARK  191  A    between atoms: _487  and  _488
REMARK  192  A    between atoms: _493  and  _495
REMARK  193  A    between atoms: _495  and  _496
REMARK  194  A    between atoms: _495  and  _498
REMARK  195  A    between atoms: _498  and  _499
REMARK  196  A    between atoms: _504  and  _506
REMARK  197  A    between atoms: _506  and  _507
REMARK  198  A    between atoms: _506  and  _509
REMARK  199  A    between atoms: _509  and  _510
REMARK  200  A    between atoms: _516  and  _518
REMARK  201  A    between atoms: _518  and  _519
REMARK  202  A    between atoms: _518  and  _521
REMARK  203  A    between atoms: _521  and  _522
REMARK  204  A    between atoms: _522  and  _523
REMARK  205  A    between atoms: _523  and  _524
REMARK  206  A    between atoms: _524  and  _525
REMARK  207  A    between atoms: _529  and  _531
REMARK  208  A    between atoms: _531  and  _532
REMARK  209  A    between atoms: _531  and  _534
REMARK  210  A    between atoms: _534  and  _535
REMARK  211  A    between atoms: _540  and  _542
REMARK  212  A    between atoms: _542  and  _543
REMARK  213  A    between atoms: _542  and  _545
REMARK  214  A    between atoms: _545  and  _546
REMARK  215  A    between atoms: _551  and  _553
REMARK  216  A    between atoms: _553  and  _554
REMARK  217  A    between atoms: _553  and  _556
REMARK  218  A    between atoms: _556  and  _557
REMARK  219  A    between atoms: _559  and  _561
REMARK  220  A    between atoms: _561  and  _562
REMARK  221  A    between atoms: _561  and  _564
REMARK  222  A    between atoms: _564  and  _565
REMARK  223  A    between atoms: _570  and  _572
REMARK  224  A    between atoms: _572  and  _573
REMARK  225  A    between atoms: _572  and  _575
REMARK  226  A    between atoms: _575  and  _576
REMARK  227  A    between atoms: _581  and  _582
REMARK  228  A    between atoms: _584  and  _586
REMARK  229  A    between atoms: _586  and  _587
REMARK  230  A    between atoms: _586  and  _589
REMARK  231  A    between atoms: _589  and  _590
REMARK  232  A    between atoms: _593  and  _595
REMARK  233  A    between atoms: _595  and  _596
REMARK  234  A    between atoms: _598  and  _600
REMARK  235  A    between atoms: _600  and  _601
REMARK  236  A    between atoms: _600  and  _603
REMARK  237  A    between atoms: _603  and  _604
REMARK  238  A    between atoms: _609  and  _611
REMARK  239  A    between atoms: _611  and  _612
REMARK  240  A    between atoms: _611  and  _614
REMARK  241  A    between atoms: _614  and  _615
REMARK  242  A    between atoms: _617  and  _619
REMARK  243  A    between atoms: _619  and  _620
REMARK  244  A    between atoms: _619  and  _622
REMARK  245  A    between atoms: _622  and  _623
REMARK  246  A    between atoms: _626  and  _628
REMARK  247  A    between atoms: _628  and  _629
REMARK  248  A    between atoms: _628  and  _631
REMARK  249  A    between atoms: _631  and  _632
REMARK  250  A    between atoms: _634  and  _636
REMARK  251  A    between atoms: _636  and  _637
REMARK  252  A    between atoms: _636  and  _639
REMARK  253  A    between atoms: _639  and  _640
REMARK  254  A    between atoms: _643  and  _645
REMARK  255  A    between atoms: _645  and  _646
REMARK  256  A    between atoms: _645  and  _648
REMARK  257  A    between atoms: _648  and  _649
REMARK                            x       y       z     vdW  Elec       q    Type
REMARK                         _______ _______ _______ _____ _____    ______ ____
ROOT
ATOM      1  O   HOH     1      13.808  -9.399  12.876  0.00  0.00    +0.000 OA
ENDROOT
TORSDOF 0
REMARK  Name = ../refined-set-2016/1ro7/1ro7_pocket.pdb
REMARK  257 active torsions:
REMARK  status: ('A' for Active; 'I' for Inactive)
REMARK    1  A    between atoms: _1  and  _3
REMARK    2  A    between atoms: _3  and  _4
REMARK    3  A    between atoms: _3  and  _6
REMARK    4  A    between atoms: _6  and  _7
REMARK    5  A    between atoms: _10  and  _12
REMARK    6  A    between atoms: _12  and  _13
REMARK    7  A    between atoms: _16  and  _18
REMARK    8  A    between atoms: _18  and  _19
REMARK    9  A    between atoms: _21  and  _23
REMARK   10  A    between atoms: _23  and  _24
REMARK   11  A    between atoms: _23  and  _26
REMARK   12  A    between atoms: _26  and  _27
REMARK   13  A    between atoms: _32  and  _34
REMARK   14  A    between atoms: _34  and  _35
REMARK   15  A    between atoms: _38  and  _39
REMARK   16  A    between atoms: _44  and  _46
REMARK   17  A    between atoms: _46  and  _47
REMARK   18  A    between atoms: _46  and  _49
REMARK   19  A    between atoms: _49  and  _50
REMARK   20  A    between atoms: _52  and  _54
REMARK   21  A    between atoms: _54  and  _55
REMARK   22  A    between atoms: _54  and  _57
REMARK   23  A    between atoms: _57  and  _58
REMARK   24  A    between atoms: _61  and  _63
REMARK   25  A    between atoms: _63  and  _64
REMARK   26  A    between atoms: _63  and  _66
REMARK   27  A    between atoms: _66  and  _67
REMARK   28  A    between atoms: _67  and  _68
REMARK   29  A    between atoms: _68  and  _69
REMARK   30  A    between atoms: _78  and  _80
REMARK   31  A    between atoms: _80  and  _81
REMARK   32  A    between atoms: _80  and  _83
REMARK   33  A    between atoms: _85  and  _87
REMARK   34  A    between atoms: _87  and  _88
REMARK   35  A    between atoms: _87  and  _90
REMARK   36  A    between atoms: _90  and  _91
REMARK   37  A    between atoms: _96  and  _98
REMARK   38  A    between atoms: _98  and  _99
REMARK   39  A    between atoms: _98  and  _101
REMARK   40  A    between atoms: _101  and  _102
REMARK   41  A    between atoms: _102  and  _103
REMARK   42  A    between atoms: _108  and  _110
REMARK   43  A    between atoms: _110  and  _111
REMARK   44  A    between atoms: _110  and  _113
REMARK   45  A    between atoms: _113  and  _114
REMARK   46  A    between atoms: _120  and  _122
REMARK   47  A    between atoms: _122  and  _123
REMARK   48  A    between atoms: _122  and  _125
REMARK   49  A    between atoms: _125  and  _126
REMARK   50  A    between atoms: _131  and  _132
REMARK   51  A    between atoms: _134  and  _136
REMARK   52  A    between atoms: _136  and  _137
REMARK   53  A    between atoms: _136  and  _139
REMARK   54  A    between atoms: _139  and  _140
REMARK   55  A    between atoms: _146  and  _148
REMARK   56  A    between atoms: _148  and  _149
REMARK   57  A    between atoms: _148  and  _151
REMARK   58  A    between atoms: _151  and  _152
REMARK   59  A    between atoms: _157  and  _158
REMARK   60  A    between atoms: _160  and  _162
REMARK   61  A    between atoms: _162  and  _163
REMARK   62  A    between atoms: _162  and  _165
REMARK   63  A    between atoms: _165  and  _166
REMARK   64  A    between atoms: _172  and  _173
REMARK   65  A    between atoms: _178  and  _180
REMARK   66  A    between atoms: _180  and  _181
REMARK   67  A    between atoms: _180  and  _183
REMARK   68  A    between atoms: _183  and  _184
REMARK   69  A    between atoms: _186  and  _188
REMARK   70  A    between atoms: _188  and  _189
REMARK   71  A    between atoms: _188  and  _191
REMARK   72  A    between atoms: _191  and  _192
REMARK   73  A    between atoms: _195  and  _197
REMARK   74  A    between atoms: _197  and  _198
REMARK   75  A    between atoms: _197  and  _200
REMARK   76  A    between atoms: _200  and  _201
REMARK   77  A    between atoms: _207  and  _209
REMARK   78  A    between atoms: _209  and  _210
REMARK   79  A    between atoms: _209  and  _212
REMARK   80  A    between atoms: _212  and  _213
REMARK   81  A    between atoms: _213  and  _214
REMARK   82  A    between atoms: _219  and  _221
REMARK   83  A    between atoms: _221  and  _222
REMARK   84  A    between atoms: _221  and  _224
REMARK   85  A    between atoms: _224  and  _225
REMARK   86  A    between atoms: _227  and  _229
REMARK   87  A    between atoms: _229  and  _230
REMARK   88  A    between atoms: _229  and  _232
REMARK   89  A    between atoms: _232  and  _233
REMARK   90  A    between atoms: _238  and  _239
REMARK   91  A    between atoms: _241  and  _243
REMARK   92  A    between atoms: _243  and  _244
REMARK   93  A    between atoms: _243  and  _246
REMARK   94  A    between atoms: _246  and  _247
REMARK   95  A    between atoms: _247  and  _248
REMARK   96  A    between atoms: _248  and  _249
REMARK   97  A    between atoms: _258  and  _260
REMARK   98  A    between atoms: _260  and  _261
REMARK   99  A    between atoms: _260  and  _263
REMARK  100  A    between atoms: _263  and  _264
REMARK  101  A    between atoms: _267  and  _269
REMARK  102  A    between atoms: _269  and  _270
REMARK  103  A    between atoms: _269  and  _272
REMARK  104  A    between atoms: _272  and  _273
REMARK  105  A    between atoms: _276  and  _278
REMARK  106  A    between atoms: _278  and  _279
REMARK  107  A    between atoms: _278  and  _281
REMARK  108  A    between atoms: _281  and  _282
REMARK  109  A    between atoms: _284  and  _286
REMARK  110  A    between atoms: _286  and  _287
REMARK  111  A    between atoms: _289  and  _291
REMARK  112  A    between atoms: _291  and  _292
REMARK  113  A    between atoms: _291  and  _294
REMARK  114  A    between atoms: _297  and  _299
REMARK  115  A    between atoms: _299  and  _300
REMARK  116  A    between atoms: _299  and  _302
REMARK  117  A    between atoms: _302  and  _303
REMARK  118  A    between atoms: _308  and  _309
REMARK  119  A    between atoms: _311  and  _313
REMARK  120  A    between atoms: _313  and  _314
REMARK  121  A    between atoms: _313  and  _316
REMARK  122  A    between atoms: _316  and  _317
REMARK  123  A    between atoms: _317  and  _318
REMARK  124  A    between atoms: _320  and  _322
REMARK  125  A    between atoms: _322  and  _323
REMARK  126  A    between atoms: _322  and  _325
REMARK  127  A    between atoms: _325  and  _326
REMARK  128  A    between atoms: _328  and  _330
REMARK  129  A    between atoms: _330  and  _331
REMARK  130  A    between atoms: _333  and  _335
REMARK  131  A    between atoms: _335  and  _336
REMARK  132  A    between atoms: _335  and  _338
REMARK  133  A    between atoms: _338  and  _339
REMARK  134  A    between atoms: _342  and  _344
REMARK  135  A    between atoms: _344  and  _345
REMARK  136  A    between atoms: _344  and  _347
REMARK  137  A    between atoms: _347  and  _348
REMARK  138  A    between atoms: _351  and  _353
REMARK  139  A    between atoms: _353  and  _354
REMARK  140  A    between atoms: _353  and  _356
REMARK  141  A    between atoms: _356  and  _357
REMARK  142  A    between atoms: _363  and  _365
REMARK  143  A    between atoms: _365  and  _366
REMARK  144  A    between atoms: _365  and  _368
REMARK  145  A    between atoms: _368  and  _369
REMARK  146  A    between atoms: _374  and  _375
REMARK  147  A    between atoms: _377  and  _379
REMARK  148  A    between atoms: _379  and  _380
REMARK  149  A    between atoms: _379  and  _382
REMARK  150  A    between atoms: _382  and  _383
REMARK  151  A    between atoms: _383  and  _384
REMARK  152  A    between atoms: _389  and  _391
REMARK  153  A    between atoms: _391  and  _392
REMARK  154  A    between atoms: _391  and  _394
REMARK  155  A    between atoms: _394  and  _395
REMARK  156  A    between atoms: _400  and  _402
REMARK  157  A    between atoms: _402  and  _403
REMARK  158  A    between atoms: _405  and  _407
REMARK  159  A    between atoms: _407  and  _408
REMARK  160  A    between atoms: _407  and  _410
REMARK  161  A    between atoms: _410  and  _411
REMARK  162  A    between atoms: _413  and  _415
REMARK  163  A    between atoms: _415  and  _416
REMARK  164  A    between atoms: _415  and  _418
REMARK  165  A    between atoms: _418  and  _419
REMARK  166  A    between atoms: _421  and  _423
REMARK  167  A    between atoms: _423  and  _424
REMARK  168  A    between atoms: _423  and  _426
REMARK  169  A    between atoms: _426  and  _427
REMARK  170  A    between atoms: _432  and  _433
REMARK  171  A    between atoms: _435  and  _437
REMARK  172  A    between atoms: _437  and  _438
REMARK  173  A    between atoms: _441  and  _443
REMARK  174  A    between atoms: _443  and  _444
REMARK  175  A    between atoms: _443  and  _446
REMARK  176  A    between atoms: _446  and  _447
REMARK  177  A    between atoms: _453  and  _455
REMARK  178  A    between atoms: _455  and  _456
REMARK  179  A    between atoms: _455  and  _458
REMARK  180  A    between atoms: _458  and  _459
REMARK  181  A    between atoms: _462  and  _464
REMARK  182  A    between atoms: _464  and  _465
REMARK  183  A    between atoms: _464  and  _467
REMARK  184  A    between atoms: _467  and  _468
REMARK  185  A    between atoms: _471  and  _473
REMARK  186  A    between atoms: _473  and  _474
REMARK  187  A    between atoms: _473  and  _476
REMARK  188  A    between atoms: _476  and  _477
REMARK  189  A    between atoms: _480  and  _482
REMARK  190  A    between atoms: _482  and  _483
REMARK  191  A    between atoms: _487  and  _488
REMARK  192  A    between atoms: _493  and  _495
REMARK  193  A    between atoms: _495  and  _496
REMARK  194  A    between atoms: _495  and  _498
REMARK  195  A    between atoms: _498  and  _499
REMARK  196  A    between atoms: _504  and  _506
REMARK  197  A    between atoms: _506  and  _507
REMARK  198  A    between atoms: _506  and  _509
REMARK  199  A    between atoms: _509  and  _510
REMARK  200  A    between atoms: _516  and  _518
REMARK  201  A    between atoms: _518  and  _519
REMARK  202  A    between atoms: _518  and  _521
REMARK  203  A    between atoms: _521  and  _522
REMARK  204  A    between atoms: _522  and  _523
REMARK  205  A    between atoms: _523  and  _524
REMARK  206  A    between atoms: _524  and  _525
REMARK  207  A    between atoms: _529  and  _531
REMARK  208  A    between atoms: _531  and  _532
REMARK  209  A    between atoms: _531  and  _534
REMARK  210  A    between atoms: _534  and  _535
REMARK  211  A    between atoms: _540  and  _542
REMARK  212  A    between atoms: _542  and  _543
REMARK  213  A    between atoms: _542  and  _545
REMARK  214  A    between atoms: _545  and  _546
REMARK  215  A    between atoms: _551  and  _553
REMARK  216  A    between atoms: _553  and  _554
REMARK  217  A    between atoms: _553  and  _556
REMARK  218  A    between atoms: _556  and  _557
REMARK  219  A    between atoms: _559  and  _561
REMARK  220  A    between atoms: _561  and  _562
REMARK  221  A    between atoms: _561  and  _564
REMARK  222  A    between atoms: _564  and  _565
REMARK  223  A    between atoms: _570  and  _572
REMARK  224  A    between atoms: _572  and  _573
REMARK  225  A    between atoms: _572  and  _575
REMARK  226  A    between atoms: _575  and  _576
REMARK  227  A    between atoms: _581  and  _582
REMARK  228  A    between atoms: _584  and  _586
REMARK  229  A    between atoms: _586  and  _587
REMARK  230  A    between atoms: _586  and  _589
REMARK  231  A    between atoms: _589  and  _590
REMARK  232  A    between atoms: _593  and  _595
REMARK  233  A    between atoms: _595  and  _596
REMARK  234  A    between atoms: _598  and  _600
REMARK  235  A    between atoms: _600  and  _601
REMARK  236  A    between atoms: _600  and  _603
REMARK  237  A    between atoms: _603  and  _604
REMARK  238  A    between atoms: _609  and  _611
REMARK  239  A    between atoms: _611  and  _612
REMARK  240  A    between atoms: _611  and  _614
REMARK  241  A    between atoms: _614  and  _615
REMARK  242  A    between atoms: _617  and  _619
REMARK  243  A    between atoms: _619  and  _620
REMARK  244  A    between atoms: _619  and  _622
REMARK  245  A    between atoms: _622  and  _623
REMARK  246  A    between atoms: _626  and  _628
REMARK  247  A    between atoms: _628  and  _629
REMARK  248  A    between atoms: _628  and  _631
REMARK  249  A    between atoms: _631  and  _632
REMARK  250  A    between atoms: _634  and  _636
REMARK  251  A    between atoms: _636  and  _637
REMARK  252  A    between atoms: _636  and  _639
REMARK  253  A    between atoms: _639  and  _640
REMARK  254  A    between atoms: _643  and  _645
REMARK  255  A    between atoms: _645  and  _646
REMARK  256  A    between atoms: _645  and  _648
REMARK  257  A    between atoms: _648  and  _649
REMARK                            x       y       z     vdW  Elec       q    Type
REMARK                         _______ _______ _______ _____ _____    ______ ____
ROOT
ATOM      1  O   HOH     1      21.043  -8.460  19.022  0.00  0.00    +0.000 OA
ENDROOT
TORSDOF 0
REMARK  Name = ../refined-set-2016/1ro7/1ro7_pocket.pdb
REMARK  257 active torsions:
REMARK  status: ('A' for Active; 'I' for Inactive)
REMARK    1  A    between atoms: _1  and  _3
REMARK    2  A    between atoms: _3  and  _4
REMARK    3  A    between atoms: _3  and  _6
REMARK    4  A    between atoms: _6  and  _7
REMARK    5  A    between atoms: _10  and  _12
REMARK    6  A    between atoms: _12  and  _13
REMARK    7  A    between atoms: _16  and  _18
REMARK    8  A    between atoms: _18  and  _19
REMARK    9  A    between atoms: _21  and  _23
REMARK   10  A    between atoms: _23  and  _24
REMARK   11  A    between atoms: _23  and  _26
REMARK   12  A    between atoms: _26  and  _27
REMARK   13  A    between atoms: _32  and  _34
REMARK   14  A    between atoms: _34  and  _35
REMARK   15  A    between atoms: _38  and  _39
REMARK   16  A    between atoms: _44  and  _46
REMARK   17  A    between atoms: _46  and  _47
REMARK   18  A    between atoms: _46  and  _49
REMARK   19  A    between atoms: _49  and  _50
REMARK   20  A    between atoms: _52  and  _54
REMARK   21  A    between atoms: _54  and  _55
REMARK   22  A    between atoms: _54  and  _57
REMARK   23  A    between atoms: _57  and  _58
REMARK   24  A    between atoms: _61  and  _63
REMARK   25  A    between atoms: _63  and  _64
REMARK   26  A    between atoms: _63  and  _66
REMARK   27  A    between atoms: _66  and  _67
REMARK   28  A    between atoms: _67  and  _68
REMARK   29  A    between atoms: _68  and  _69
REMARK   30  A    between atoms: _78  and  _80
REMARK   31  A    between atoms: _80  and  _81
REMARK   32  A    between atoms: _80  and  _83
REMARK   33  A    between atoms: _85  and  _87
REMARK   34  A    between atoms: _87  and  _88
REMARK   35  A    between atoms: _87  and  _90
REMARK   36  A    between atoms: _90  and  _91
REMARK   37  A    between atoms: _96  and  _98
REMARK   38  A    between atoms: _98  and  _99
REMARK   39  A    between atoms: _98  and  _101
REMARK   40  A    between atoms: _101  and  _102
REMARK   41  A    between atoms: _102  and  _103
REMARK   42  A    between atoms: _108  and  _110
REMARK   43  A    between atoms: _110  and  _111
REMARK   44  A    between atoms: _110  and  _113
REMARK   45  A    between atoms: _113  and  _114
REMARK   46  A    between atoms: _120  and  _122
REMARK   47  A    between atoms: _122  and  _123
REMARK   48  A    between atoms: _122  and  _125
REMARK   49  A    between atoms: _125  and  _126
REMARK   50  A    between atoms: _131  and  _132
REMARK   51  A    between atoms: _134  and  _136
REMARK   52  A    between atoms: _136  and  _137
REMARK   53  A    between atoms: _136  and  _139
REMARK   54  A    between atoms: _139  and  _140
REMARK   55  A    between atoms: _146  and  _148
REMARK   56  A    between atoms: _148  and  _149
REMARK   57  A    between atoms: _148  and  _151
REMARK   58  A    between atoms: _151  and  _152
REMARK   59  A    between atoms: _157  and  _158
REMARK   60  A    between atoms: _160  and  _162
REMARK   61  A    between atoms: _162  and  _163
REMARK   62  A    between atoms: _162  and  _165
REMARK   63  A    between atoms: _165  and  _166
REMARK   64  A    between atoms: _172  and  _173
REMARK   65  A    between atoms: _178  and  _180
REMARK   66  A    between atoms: _180  and  _181
REMARK   67  A    between atoms: _180  and  _183
REMARK   68  A    between atoms: _183  and  _184
REMARK   69  A    between atoms: _186  and  _188
REMARK   70  A    between atoms: _188  and  _189
REMARK   71  A    between atoms: _188  and  _191
REMARK   72  A    between atoms: _191  and  _192
REMARK   73  A    between atoms: _195  and  _197
REMARK   74  A    between atoms: _197  and  _198
REMARK   75  A    between atoms: _197  and  _200
REMARK   76  A    between atoms: _200  and  _201
REMARK   77  A    between atoms: _207  and  _209
REMARK   78  A    between atoms: _209  and  _210
REMARK   79  A    between atoms: _209  and  _212
REMARK   80  A    between atoms: _212  and  _213
REMARK   81  A    between atoms: _213  and  _214
REMARK   82  A    between atoms: _219  and  _221
REMARK   83  A    between atoms: _221  and  _222
REMARK   84  A    between atoms: _221  and  _224
REMARK   85  A    between atoms: _224  and  _225
REMARK   86  A    between atoms: _227  and  _229
REMARK   87  A    between atoms: _229  and  _230
REMARK   88  A    between atoms: _229  and  _232
REMARK   89  A    between atoms: _232  and  _233
REMARK   90  A    between atoms: _238  and  _239
REMARK   91  A    between atoms: _241  and  _243
REMARK   92  A    between atoms: _243  and  _244
REMARK   93  A    between atoms: _243  and  _246
REMARK   94  A    between atoms: _246  and  _247
REMARK   95  A    between atoms: _247  and  _248
REMARK   96  A    between atoms: _248  and  _249
REMARK   97  A    between atoms: _258  and  _260
REMARK   98  A    between atoms: _260  and  _261
REMARK   99  A    between atoms: _260  and  _263
REMARK  100  A    between atoms: _263  and  _264
REMARK  101  A    between atoms: _267  and  _269
REMARK  102  A    between atoms: _269  and  _270
REMARK  103  A    between atoms: _269  and  _272
REMARK  104  A    between atoms: _272  and  _273
REMARK  105  A    between atoms: _276  and  _278
REMARK  106  A    between atoms: _278  and  _279
REMARK  107  A    between atoms: _278  and  _281
REMARK  108  A    between atoms: _281  and  _282
REMARK  109  A    between atoms: _284  and  _286
REMARK  110  A    between atoms: _286  and  _287
REMARK  111  A    between atoms: _289  and  _291
REMARK  112  A    between atoms: _291  and  _292
REMARK  113  A    between atoms: _291  and  _294
REMARK  114  A    between atoms: _297  and  _299
REMARK  115  A    between atoms: _299  and  _300
REMARK  116  A    between atoms: _299  and  _302
REMARK  117  A    between atoms: _302  and  _303
REMARK  118  A    between atoms: _308  and  _309
REMARK  119  A    between atoms: _311  and  _313
REMARK  120  A    between atoms: _313  and  _314
REMARK  121  A    between atoms: _313  and  _316
REMARK  122  A    between atoms: _316  and  _317
REMARK  123  A    between atoms: _317  and  _318
REMARK  124  A    between atoms: _320  and  _322
REMARK  125  A    between atoms: _322  and  _323
REMARK  126  A    between atoms: _322  and  _325
REMARK  127  A    between atoms: _325  and  _326
REMARK  128  A    between atoms: _328  and  _330
REMARK  129  A    between atoms: _330  and  _331
REMARK  130  A    between atoms: _333  and  _335
REMARK  131  A    between atoms: _335  and  _336
REMARK  132  A    between atoms: _335  and  _338
REMARK  133  A    between atoms: _338  and  _339
REMARK  134  A    between atoms: _342  and  _344
REMARK  135  A    between atoms: _344  and  _345
REMARK  136  A    between atoms: _344  and  _347
REMARK  137  A    between atoms: _347  and  _348
REMARK  138  A    between atoms: _351  and  _353
REMARK  139  A    between atoms: _353  and  _354
REMARK  140  A    between atoms: _353  and  _356
REMARK  141  A    between atoms: _356  and  _357
REMARK  142  A    between atoms: _363  and  _365
REMARK  143  A    between atoms: _365  and  _366
REMARK  144  A    between atoms: _365  and  _368
REMARK  145  A    between atoms: _368  and  _369
REMARK  146  A    between atoms: _374  and  _375
REMARK  147  A    between atoms: _377  and  _379
REMARK  148  A    between atoms: _379  and  _380
REMARK  149  A    between atoms: _379  and  _382
REMARK  150  A    between atoms: _382  and  _383
REMARK  151  A    between atoms: _383  and  _384
REMARK  152  A    between atoms: _389  and  _391
REMARK  153  A    between atoms: _391  and  _392
REMARK  154  A    between atoms: _391  and  _394
REMARK  155  A    between atoms: _394  and  _395
REMARK  156  A    between atoms: _400  and  _402
REMARK  157  A    between atoms: _402  and  _403
REMARK  158  A    between atoms: _405  and  _407
REMARK  159  A    between atoms: _407  and  _408
REMARK  160  A    between atoms: _407  and  _410
REMARK  161  A    between atoms: _410  and  _411
REMARK  162  A    between atoms: _413  and  _415
REMARK  163  A    between atoms: _415  and  _416
REMARK  164  A    between atoms: _415  and  _418
REMARK  165  A    between atoms: _418  and  _419
REMARK  166  A    between atoms: _421  and  _423
REMARK  167  A    between atoms: _423  and  _424
REMARK  168  A    between atoms: _423  and  _426
REMARK  169  A    between atoms: _426  and  _427
REMARK  170  A    between atoms: _432  and  _433
REMARK  171  A    between atoms: _435  and  _437
REMARK  172  A    between atoms: _437  and  _438
REMARK  173  A    between atoms: _441  and  _443
REMARK  174  A    between atoms: _443  and  _444
REMARK  175  A    between atoms: _443  and  _446
REMARK  176  A    between atoms: _446  and  _447
REMARK  177  A    between atoms: _453  and  _455
REMARK  178  A    between atoms: _455  and  _456
REMARK  179  A    between atoms: _455  and  _458
REMARK  180  A    between atoms: _458  and  _459
REMARK  181  A    between atoms: _462  and  _464
REMARK  182  A    between atoms: _464  and  _465
REMARK  183  A    between atoms: _464  and  _467
REMARK  184  A    between atoms: _467  and  _468
REMARK  185  A    between atoms: _471  and  _473
REMARK  186  A    between atoms: _473  and  _474
REMARK  187  A    between atoms: _473  and  _476
REMARK  188  A    between atoms: _476  and  _477
REMARK  189  A    between atoms: _480  and  _482
REMARK  190  A    between atoms: _482  and  _483
REMARK  191  A    between atoms: _487  and  _488
REMARK  192  A    between atoms: _493  and  _495
REMARK  193  A    between atoms: _495  and  _496
REMARK  194  A    between atoms: _495  and  _498
REMARK  195  A    between atoms: _498  and  _499
REMARK  196  A    between atoms: _504  and  _506
REMARK  197  A    between atoms: _506  and  _507
REMARK  198  A    between atoms: _506  and  _509
REMARK  199  A    between atoms: _509  and  _510
REMARK  200  A    between atoms: _516  and  _518
REMARK  201  A    between atoms: _518  and  _519
REMARK  202  A    between atoms: _518  and  _521
REMARK  203  A    between atoms: _521  and  _522
REMARK  204  A    between atoms: _522  and  _523
REMARK  205  A    between atoms: _523  and  _524
REMARK  206  A    between atoms: _524  and  _525
REMARK  207  A    between atoms: _529  and  _531
REMARK  208  A    between atoms: _531  and  _532
REMARK  209  A    between atoms: _531  and  _534
REMARK  210  A    between atoms: _534  and  _535
REMARK  211  A    between atoms: _540  and  _542
REMARK  212  A    between atoms: _542  and  _543
REMARK  213  A    between atoms: _542  and  _545
REMARK  214  A    between atoms: _545  and  _546
REMARK  215  A    between atoms: _551  and  _553
REMARK  216  A    between atoms: _553  and  _554
REMARK  217  A    between atoms: _553  and  _556
REMARK  218  A    between atoms: _556  and  _557
REMARK  219  A    between atoms: _559  and  _561
REMARK  220  A    between atoms: _561  and  _562
REMARK  221  A    between atoms: _561  and  _564
REMARK  222  A    between atoms: _564  and  _565
REMARK  223  A    between atoms: _570  and  _572
REMARK  224  A    between atoms: _572  and  _573
REMARK  225  A    between atoms: _572  and  _575
REMARK  226  A    between atoms: _575  and  _576
REMARK  227  A    between atoms: _581  and  _582
REMARK  228  A    between atoms: _584  and  _586
REMARK  229  A    between atoms: _586  and  _587
REMARK  230  A    between atoms: _586  and  _589
REMARK  231  A    between atoms: _589  and  _590
REMARK  232  A    between atoms: _593  and  _595
REMARK  233  A    between atoms: _595  and  _596
REMARK  234  A    between atoms: _598  and  _600
REMARK  235  A    between atoms: _600  and  _601
REMARK  236  A    between atoms: _600  and  _603
REMARK  237  A    between atoms: _603  and  _604
REMARK  238  A    between atoms: _609  and  _611
REMARK  239  A    between atoms: _611  and  _612
REMARK  240  A    between atoms: _611  and  _614
REMARK  241  A    between atoms: _614  and  _615
REMARK  242  A    between atoms: _617  and  _619
REMARK  243  A    between atoms: _619  and  _620
REMARK  244  A    between atoms: _619  and  _622
REMARK  245  A    between atoms: _622  and  _623
REMARK  246  A    between atoms: _626  and  _628
REMARK  247  A    between atoms: _628  and  _629
REMARK  248  A    between atoms: _628  and  _631
REMARK  249  A    between atoms: _631  and  _632
REMARK  250  A    between atoms: _634  and  _636
REMARK  251  A    between atoms: _636  and  _637
REMARK  252  A    between atoms: _636  and  _639
REMARK  253  A    between atoms: _639  and  _640
REMARK  254  A    between atoms: _643  and  _645
REMARK  255  A    between atoms: _645  and  _646
REMARK  256  A    between atoms: _645  and  _648
REMARK  257  A    between atoms: _648  and  _649
REMARK                            x       y       z     vdW  Elec       q    Type
REMARK                         _______ _______ _______ _____ _____    ______ ____
ROOT
ATOM      1  O   HOH     1      21.116   4.616  11.326  0.00  0.00    +0.000 OA
ENDROOT
TORSDOF 0
REMARK  Name = ../refined-set-2016/1ro7/1ro7_pocket.pdb
REMARK  257 active torsions:
REMARK  status: ('A' for Active; 'I' for Inactive)
REMARK    1  A    between atoms: _1  and  _3
REMARK    2  A    between atoms: _3  and  _4
REMARK    3  A    between atoms: _3  and  _6
REMARK    4  A    between atoms: _6  and  _7
REMARK    5  A    between atoms: _10  and  _12
REMARK    6  A    between atoms: _12  and  _13
REMARK    7  A    between atoms: _16  and  _18
REMARK    8  A    between atoms: _18  and  _19
REMARK    9  A    between atoms: _21  and  _23
REMARK   10  A    between atoms: _23  and  _24
REMARK   11  A    between atoms: _23  and  _26
REMARK   12  A    between atoms: _26  and  _27
REMARK   13  A    between atoms: _32  and  _34
REMARK   14  A    between atoms: _34  and  _35
REMARK   15  A    between atoms: _38  and  _39
REMARK   16  A    between atoms: _44  and  _46
REMARK   17  A    between atoms: _46  and  _47
REMARK   18  A    between atoms: _46  and  _49
REMARK   19  A    between atoms: _49  and  _50
REMARK   20  A    between atoms: _52  and  _54
REMARK   21  A    between atoms: _54  and  _55
REMARK   22  A    between atoms: _54  and  _57
REMARK   23  A    between atoms: _57  and  _58
REMARK   24  A    between atoms: _61  and  _63
REMARK   25  A    between atoms: _63  and  _64
REMARK   26  A    between atoms: _63  and  _66
REMARK   27  A    between atoms: _66  and  _67
REMARK   28  A    between atoms: _67  and  _68
REMARK   29  A    between atoms: _68  and  _69
REMARK   30  A    between atoms: _78  and  _80
REMARK   31  A    between atoms: _80  and  _81
REMARK   32  A    between atoms: _80  and  _83
REMARK   33  A    between atoms: _85  and  _87
REMARK   34  A    between atoms: _87  and  _88
REMARK   35  A    between atoms: _87  and  _90
REMARK   36  A    between atoms: _90  and  _91
REMARK   37  A    between atoms: _96  and  _98
REMARK   38  A    between atoms: _98  and  _99
REMARK   39  A    between atoms: _98  and  _101
REMARK   40  A    between atoms: _101  and  _102
REMARK   41  A    between atoms: _102  and  _103
REMARK   42  A    between atoms: _108  and  _110
REMARK   43  A    between atoms: _110  and  _111
REMARK   44  A    between atoms: _110  and  _113
REMARK   45  A    between atoms: _113  and  _114
REMARK   46  A    between atoms: _120  and  _122
REMARK   47  A    between atoms: _122  and  _123
REMARK   48  A    between atoms: _122  and  _125
REMARK   49  A    between atoms: _125  and  _126
REMARK   50  A    between atoms: _131  and  _132
REMARK   51  A    between atoms: _134  and  _136
REMARK   52  A    between atoms: _136  and  _137
REMARK   53  A    between atoms: _136  and  _139
REMARK   54  A    between atoms: _139  and  _140
REMARK   55  A    between atoms: _146  and  _148
REMARK   56  A    between atoms: _148  and  _149
REMARK   57  A    between atoms: _148  and  _151
REMARK   58  A    between atoms: _151  and  _152
REMARK   59  A    between atoms: _157  and  _158
REMARK   60  A    between atoms: _160  and  _162
REMARK   61  A    between atoms: _162  and  _163
REMARK   62  A    between atoms: _162  and  _165
REMARK   63  A    between atoms: _165  and  _166
REMARK   64  A    between atoms: _172  and  _173
REMARK   65  A    between atoms: _178  and  _180
REMARK   66  A    between atoms: _180  and  _181
REMARK   67  A    between atoms: _180  and  _183
REMARK   68  A    between atoms: _183  and  _184
REMARK   69  A    between atoms: _186  and  _188
REMARK   70  A    between atoms: _188  and  _189
REMARK   71  A    between atoms: _188  and  _191
REMARK   72  A    between atoms: _191  and  _192
REMARK   73  A    between atoms: _195  and  _197
REMARK   74  A    between atoms: _197  and  _198
REMARK   75  A    between atoms: _197  and  _200
REMARK   76  A    between atoms: _200  and  _201
REMARK   77  A    between atoms: _207  and  _209
REMARK   78  A    between atoms: _209  and  _210
REMARK   79  A    between atoms: _209  and  _212
REMARK   80  A    between atoms: _212  and  _213
REMARK   81  A    between atoms: _213  and  _214
REMARK   82  A    between atoms: _219  and  _221
REMARK   83  A    between atoms: _221  and  _222
REMARK   84  A    between atoms: _221  and  _224
REMARK   85  A    between atoms: _224  and  _225
REMARK   86  A    between atoms: _227  and  _229
REMARK   87  A    between atoms: _229  and  _230
REMARK   88  A    between atoms: _229  and  _232
REMARK   89  A    between atoms: _232  and  _233
REMARK   90  A    between atoms: _238  and  _239
REMARK   91  A    between atoms: _241  and  _243
REMARK   92  A    between atoms: _243  and  _244
REMARK   93  A    between atoms: _243  and  _246
REMARK   94  A    between atoms: _246  and  _247
REMARK   95  A    between atoms: _247  and  _248
REMARK   96  A    between atoms: _248  and  _249
REMARK   97  A    between atoms: _258  and  _260
REMARK   98  A    between atoms: _260  and  _261
REMARK   99  A    between atoms: _260  and  _263
REMARK  100  A    between atoms: _263  and  _264
REMARK  101  A    between atoms: _267  and  _269
REMARK  102  A    between atoms: _269  and  _270
REMARK  103  A    between atoms: _269  and  _272
REMARK  104  A    between atoms: _272  and  _273
REMARK  105  A    between atoms: _276  and  _278
REMARK  106  A    between atoms: _278  and  _279
REMARK  107  A    between atoms: _278  and  _281
REMARK  108  A    between atoms: _281  and  _282
REMARK  109  A    between atoms: _284  and  _286
REMARK  110  A    between atoms: _286  and  _287
REMARK  111  A    between atoms: _289  and  _291
REMARK  112  A    between atoms: _291  and  _292
REMARK  113  A    between atoms: _291  and  _294
REMARK  114  A    between atoms: _297  and  _299
REMARK  115  A    between atoms: _299  and  _300
REMARK  116  A    between atoms: _299  and  _302
REMARK  117  A    between atoms: _302  and  _303
REMARK  118  A    between atoms: _308  and  _309
REMARK  119  A    between atoms: _311  and  _313
REMARK  120  A    between atoms: _313  and  _314
REMARK  121  A    between atoms: _313  and  _316
REMARK  122  A    between atoms: _316  and  _317
REMARK  123  A    between atoms: _317  and  _318
REMARK  124  A    between atoms: _320  and  _322
REMARK  125  A    between atoms: _322  and  _323
REMARK  126  A    between atoms: _322  and  _325
REMARK  127  A    between atoms: _325  and  _326
REMARK  128  A    between atoms: _328  and  _330
REMARK  129  A    between atoms: _330  and  _331
REMARK  130  A    between atoms: _333  and  _335
REMARK  131  A    between atoms: _335  and  _336
REMARK  132  A    between atoms: _335  and  _338
REMARK  133  A    between atoms: _338  and  _339
REMARK  134  A    between atoms: _342  and  _344
REMARK  135  A    between atoms: _344  and  _345
REMARK  136  A    between atoms: _344  and  _347
REMARK  137  A    between atoms: _347  and  _348
REMARK  138  A    between atoms: _351  and  _353
REMARK  139  A    between atoms: _353  and  _354
REMARK  140  A    between atoms: _353  and  _356
REMARK  141  A    between atoms: _356  and  _357
REMARK  142  A    between atoms: _363  and  _365
REMARK  143  A    between atoms: _365  and  _366
REMARK  144  A    between atoms: _365  and  _368
REMARK  145  A    between atoms: _368  and  _369
REMARK  146  A    between atoms: _374  and  _375
REMARK  147  A    between atoms: _377  and  _379
REMARK  148  A    between atoms: _379  and  _380
REMARK  149  A    between atoms: _379  and  _382
REMARK  150  A    between atoms: _382  and  _383
REMARK  151  A    between atoms: _383  and  _384
REMARK  152  A    between atoms: _389  and  _391
REMARK  153  A    between atoms: _391  and  _392
REMARK  154  A    between atoms: _391  and  _394
REMARK  155  A    between atoms: _394  and  _395
REMARK  156  A    between atoms: _400  and  _402
REMARK  157  A    between atoms: _402  and  _403
REMARK  158  A    between atoms: _405  and  _407
REMARK  159  A    between atoms: _407  and  _408
REMARK  160  A    between atoms: _407  and  _410
REMARK  161  A    between atoms: _410  and  _411
REMARK  162  A    between atoms: _413  and  _415
REMARK  163  A    between atoms: _415  and  _416
REMARK  164  A    between atoms: _415  and  _418
REMARK  165  A    between atoms: _418  and  _419
REMARK  166  A    between atoms: _421  and  _423
REMARK  167  A    between atoms: _423  and  _424
REMARK  168  A    between atoms: _423  and  _426
REMARK  169  A    between atoms: _426  and  _427
REMARK  170  A    between atoms: _432  and  _433
REMARK  171  A    between atoms: _435  and  _437
REMARK  172  A    between atoms: _437  and  _438
REMARK  173  A    between atoms: _441  and  _443
REMARK  174  A    between atoms: _443  and  _444
REMARK  175  A    between atoms: _443  and  _446
REMARK  176  A    between atoms: _446  and  _447
REMARK  177  A    between atoms: _453  and  _455
REMARK  178  A    between atoms: _455  and  _456
REMARK  179  A    between atoms: _455  and  _458
REMARK  180  A    between atoms: _458  and  _459
REMARK  181  A    between atoms: _462  and  _464
REMARK  182  A    between atoms: _464  and  _465
REMARK  183  A    between atoms: _464  and  _467
REMARK  184  A    between atoms: _467  and  _468
REMARK  185  A    between atoms: _471  and  _473
REMARK  186  A    between atoms: _473  and  _474
REMARK  187  A    between atoms: _473  and  _476
REMARK  188  A    between atoms: _476  and  _477
REMARK  189  A    between atoms: _480  and  _482
REMARK  190  A    between atoms: _482  and  _483
REMARK  191  A    between atoms: _487  and  _488
REMARK  192  A    between atoms: _493  and  _495
REMARK  193  A    between atoms: _495  and  _496
REMARK  194  A    between atoms: _495  and  _498
REMARK  195  A    between atoms: _498  and  _499
REMARK  196  A    between atoms: _504  and  _506
REMARK  197  A    between atoms: _506  and  _507
REMARK  198  A    between atoms: _506  and  _509
REMARK  199  A    between atoms: _509  and  _510
REMARK  200  A    between atoms: _516  and  _518
REMARK  201  A    between atoms: _518  and  _519
REMARK  202  A    between atoms: _518  and  _521
REMARK  203  A    between atoms: _521  and  _522
REMARK  204  A    between atoms: _522  and  _523
REMARK  205  A    between atoms: _523  and  _524
REMARK  206  A    between atoms: _524  and  _525
REMARK  207  A    between atoms: _529  and  _531
REMARK  208  A    between atoms: _531  and  _532
REMARK  209  A    between atoms: _531  and  _534
REMARK  210  A    between atoms: _534  and  _535
REMARK  211  A    between atoms: _540  and  _542
REMARK  212  A    between atoms: _542  and  _543
REMARK  213  A    between atoms: _542  and  _545
REMARK  214  A    between atoms: _545  and  _546
REMARK  215  A    between atoms: _551  and  _553
REMARK  216  A    between atoms: _553  and  _554
REMARK  217  A    between atoms: _553  and  _556
REMARK  218  A    between atoms: _556  and  _557
REMARK  219  A    between atoms: _559  and  _561
REMARK  220  A    between atoms: _561  and  _562
REMARK  221  A    between atoms: _561  and  _564
REMARK  222  A    between atoms: _564  and  _565
REMARK  223  A    between atoms: _570  and  _572
REMARK  224  A    between atoms: _572  and  _573
REMARK  225  A    between atoms: _572  and  _575
REMARK  226  A    between atoms: _575  and  _576
REMARK  227  A    between atoms: _581  and  _582
REMARK  228  A    between atoms: _584  and  _586
REMARK  229  A    between atoms: _586  and  _587
REMARK  230  A    between atoms: _586  and  _589
REMARK  231  A    between atoms: _589  and  _590
REMARK  232  A    between atoms: _593  and  _595
REMARK  233  A    between atoms: _595  and  _596
REMARK  234  A    between atoms: _598  and  _600
REMARK  235  A    between atoms: _600  and  _601
REMARK  236  A    between atoms: _600  and  _603
REMARK  237  A    between atoms: _603  and  _604
REMARK  238  A    between atoms: _609  and  _611
REMARK  239  A    between atoms: _611  and  _612
REMARK  240  A    between atoms: _611  and  _614
REMARK  241  A    between atoms: _614  and  _615
REMARK  242  A    between atoms: _617  and  _619
REMARK  243  A    between atoms: _619  and  _620
REMARK  244  A    between atoms: _619  and  _622
REMARK  245  A    between atoms: _622  and  _623
REMARK  246  A    between atoms: _626  and  _628
REMARK  247  A    between atoms: _628  and  _629
REMARK  248  A    between atoms: _628  and  _631
REMARK  249  A    between atoms: _631  and  _632
REMARK  250  A    between atoms: _634  and  _636
REMARK  251  A    between atoms: _636  and  _637
REMARK  252  A    between atoms: _636  and  _639
REMARK  253  A    between atoms: _639  and  _640
REMARK  254  A    between atoms: _643  and  _645
REMARK  255  A    between atoms: _645  and  _646
REMARK  256  A    between atoms: _645  and  _648
REMARK  257  A    between atoms: _648  and  _649
REMARK                            x       y       z     vdW  Elec       q    Type
REMARK                         _______ _______ _______ _____ _____    ______ ____
ROOT
ATOM      1  O   HOH     1      21.807 -10.867  10.470  0.00  0.00    +0.000 OA
ENDROOT
TORSDOF 0
