REMARK  Name = ../refined-set-2016/1tog/1tog_pocket.pdb
REMARK  148 active torsions:
REMARK  status: ('A' for Active; 'I' for Inactive)
REMARK    1  A    between atoms: _1  and  _3
REMARK    2  A    between atoms: _3  and  _4
REMARK    3  A    between atoms: _3  and  _6
REMARK    4  A    between atoms: _6  and  _7
REMARK    5  A    between atoms: _11  and  _12
REMARK    6  A    between atoms: _17  and  _19
REMARK    7  A    between atoms: _19  and  _20
REMARK    8  A    between atoms: _19  and  _22
REMARK    9  A    between atoms: _22  and  _23
REMARK   10  A    between atoms: _26  and  _28
REMARK   11  A    between atoms: _28  and  _29
REMARK   12  A    between atoms: _28  and  _31
REMARK   13  A    between atoms: _31  and  _32
REMARK   14  A    between atoms: _35  and  _37
REMARK   15  A    between atoms: _37  and  _38
REMARK   16  A    between atoms: _40  and  _42
REMARK   17  A    between atoms: _42  and  _43
REMARK   18  A    between atoms: _42  and  _45
REMARK   19  A    between atoms: _45  and  _46
REMARK   20  A    between atoms: _49  and  _51
REMARK   21  A    between atoms: _51  and  _52
REMARK   22  A    between atoms: _51  and  _54
REMARK   23  A    between atoms: _54  and  _55
REMARK   24  A    between atoms: _58  and  _60
REMARK   25  A    between atoms: _60  and  _61
REMARK   26  A    between atoms: _63  and  _65
REMARK   27  A    between atoms: _65  and  _66
REMARK   28  A    between atoms: _65  and  _68
REMARK   29  A    between atoms: _68  and  _69
REMARK   30  A    between atoms: _72  and  _74
REMARK   31  A    between atoms: _74  and  _75
REMARK   32  A    between atoms: _77  and  _79
REMARK   33  A    between atoms: _79  and  _80
REMARK   34  A    between atoms: _79  and  _82
REMARK   35  A    between atoms: _85  and  _87
REMARK   36  A    between atoms: _87  and  _88
REMARK   37  A    between atoms: _90  and  _92
REMARK   38  A    between atoms: _92  and  _93
REMARK   39  A    between atoms: _92  and  _95
REMARK   40  A    between atoms: _95  and  _96
REMARK   41  A    between atoms: _98  and  _100
REMARK   42  A    between atoms: _100  and  _101
REMARK   43  A    between atoms: _103  and  _105
REMARK   44  A    between atoms: _105  and  _106
REMARK   45  A    between atoms: _105  and  _108
REMARK   46  A    between atoms: _108  and  _109
REMARK   47  A    between atoms: _112  and  _114
REMARK   48  A    between atoms: _114  and  _115
REMARK   49  A    between atoms: _114  and  _117
REMARK   50  A    between atoms: _117  and  _118
REMARK   51  A    between atoms: _129  and  _130
REMARK   52  A    between atoms: _135  and  _137
REMARK   53  A    between atoms: _137  and  _138
REMARK   54  A    between atoms: _137  and  _140
REMARK   55  A    between atoms: _140  and  _141
REMARK   56  A    between atoms: _146  and  _148
REMARK   57  A    between atoms: _148  and  _149
REMARK   58  A    between atoms: _148  and  _151
REMARK   59  A    between atoms: _151  and  _152
REMARK   60  A    between atoms: _158  and  _159
REMARK   61  A    between atoms: _164  and  _166
REMARK   62  A    between atoms: _166  and  _167
REMARK   63  A    between atoms: _170  and  _172
REMARK   64  A    between atoms: _172  and  _173
REMARK   65  A    between atoms: _172  and  _175
REMARK   66  A    between atoms: _175  and  _176
REMARK   67  A    between atoms: _181  and  _182
REMARK   68  A    between atoms: _184  and  _186
REMARK   69  A    between atoms: _186  and  _187
REMARK   70  A    between atoms: _186  and  _189
REMARK   71  A    between atoms: _189  and  _190
REMARK   72  A    between atoms: _192  and  _194
REMARK   73  A    between atoms: _194  and  _195
REMARK   74  A    between atoms: _194  and  _197
REMARK   75  A    between atoms: _197  and  _198
REMARK   76  A    between atoms: _205  and  _206
REMARK   77  A    between atoms: _206  and  _222
REMARK   78  A    between atoms: _207  and  _209
REMARK   79  A    between atoms: _209  and  _210
REMARK   80  A    between atoms: _210  and  _211
REMARK   81  A    between atoms: _215  and  _217
REMARK   82  A    between atoms: _217  and  _218
REMARK   83  A    between atoms: _217  and  _225
REMARK   84  A    between atoms: _218  and  _219
REMARK   85  A    between atoms: _219  and  _220
REMARK   86  A    between atoms: _220  and  _221
REMARK   87  A    between atoms: _221  and  _222
REMARK   88  A    between atoms: _227  and  _229
REMARK   89  A    between atoms: _229  and  _230
REMARK   90  A    between atoms: _229  and  _232
REMARK   91  A    between atoms: _232  and  _233
REMARK   92  A    between atoms: _238  and  _239
REMARK   93  A    between atoms: _241  and  _243
REMARK   94  A    between atoms: _243  and  _244
REMARK   95  A    between atoms: _243  and  _246
REMARK   96  A    between atoms: _246  and  _247
REMARK   97  A    between atoms: _247  and  _248
REMARK   98  A    between atoms: _248  and  _249
REMARK   99  A    between atoms: _258  and  _260
REMARK  100  A    between atoms: _260  and  _261
REMARK  101  A    between atoms: _260  and  _263
REMARK  102  A    between atoms: _263  and  _264
REMARK  103  A    between atoms: _264  and  _265
REMARK  104  A    between atoms: _267  and  _269
REMARK  105  A    between atoms: _269  and  _270
REMARK  106  A    between atoms: _269  and  _272
REMARK  107  A    between atoms: _272  and  _273
REMARK  108  A    between atoms: _279  and  _281
REMARK  109  A    between atoms: _281  and  _282
REMARK  110  A    between atoms: _281  and  _284
REMARK  111  A    between atoms: _287  and  _289
REMARK  112  A    between atoms: _289  and  _290
REMARK  113  A    between atoms: _289  and  _292
REMARK  114  A    between atoms: _292  and  _293
REMARK  115  A    between atoms: _293  and  _294
REMARK  116  A    between atoms: _294  and  _295
REMARK  117  A    between atoms: _304  and  _306
REMARK  118  A    between atoms: _306  and  _307
REMARK  119  A    between atoms: _306  and  _309
REMARK  120  A    between atoms: _309  and  _310
REMARK  121  A    between atoms: _315  and  _317
REMARK  122  A    between atoms: _317  and  _318
REMARK  123  A    between atoms: _317  and  _320
REMARK  124  A    between atoms: _320  and  _321
REMARK  125  A    between atoms: _326  and  _327
REMARK  126  A    between atoms: _329  and  _331
REMARK  127  A    between atoms: _331  and  _332
REMARK  128  A    between atoms: _331  and  _334
REMARK  129  A    between atoms: _334  and  _335
REMARK  130  A    between atoms: _338  and  _340
REMARK  131  A    between atoms: _340  and  _341
REMARK  132  A    between atoms: _340  and  _343
REMARK  133  A    between atoms: _343  and  _344
REMARK  134  A    between atoms: _344  and  _345
REMARK  135  A    between atoms: _345  and  _346
REMARK  136  A    between atoms: _355  and  _357
REMARK  137  A    between atoms: _357  and  _358
REMARK  138  A    between atoms: _357  and  _360
REMARK  139  A    between atoms: _360  and  _361
REMARK  140  A    between atoms: _366  and  _367
REMARK  141  A    between atoms: _369  and  _371
REMARK  142  A    between atoms: _371  and  _372
REMARK  143  A    between atoms: _371  and  _374
REMARK  144  A    between atoms: _374  and  _375
REMARK  145  A    between atoms: _377  and  _379
REMARK  146  A    between atoms: _379  and  _380
REMARK  147  A    between atoms: _379  and  _382
REMARK  148  A    between atoms: _382  and  _383
REMARK                            x       y       z     vdW  Elec       q    Type
REMARK                         _______ _______ _______ _____ _____    ______ ____
ROOT
ATOM      1  C   ILE A   3      46.133  86.272 -17.590  0.00  0.00    +0.241 C 
ATOM      2  N   LEU A   4      46.307  85.564 -16.479  0.00  0.00    -0.297 N 
ATOM      3  H   LEU A   4      45.675  85.714 -15.667  0.00  0.00    +0.150 HD
ATOM      4  O   ILE A   3      46.948  86.259 -18.504  0.00  0.00    -0.273 OA
ENDROOT
BRANCH   2   5
ATOM      5  CA  LEU A   4      47.394  84.563 -16.390  0.00  0.00    +0.149 C 
BRANCH   5   6
ATOM      6  C   LEU A   4      47.252  83.490 -17.472  0.00  0.00    +0.241 C 
ATOM      7  N   GLY A   5      46.012  83.149 -17.822  0.00  0.00    -0.295 N 
ATOM      8  H   GLY A   5      45.212  83.512 -17.265  0.00  0.00    +0.150 HD
ATOM      9  O   LEU A   4      48.245  82.995 -17.977  0.00  0.00    -0.273 OA
BRANCH   7  10
ATOM     10  CA  GLY A   5      45.741  82.275 -18.972  0.00  0.00    +0.176 C 
BRANCH  10  11
ATOM     11  C   GLY A   5      46.386  82.747 -20.271  0.00  0.00    +0.243 C 
ATOM     12  N   LEU A   6      46.576  84.064 -20.416  0.00  0.00    -0.298 N 
ATOM     13  H   LEU A   6      46.236  84.710 -19.675  0.00  0.00    +0.150 HD
ATOM     14  O   GLY A   5      46.718  81.926 -21.131  0.00  0.00    -0.273 OA
BRANCH  12  15
ATOM     15  CA  LEU A   6      47.250  84.619 -21.591  0.00  0.00    +0.137 C 
BRANCH  15  16
ATOM     16  C   LEU A   6      48.726  84.248 -21.666  0.00  0.00    +0.227 C 
ATOM     17  O   LEU A   6      49.283  84.139 -22.761  0.00  0.00    -0.286 OA
ENDBRANCH  15  16
BRANCH  15  18
ATOM     18  CB  LEU A   6      47.109  86.136 -21.650  0.00  0.00    +0.028 C 
BRANCH  18  19
ATOM     19  CG  LEU A   6      45.826  86.781 -22.145  0.00  0.00    +0.002 C 
ATOM     20  CD2 LEU A   6      46.056  88.298 -22.305  0.00  0.00    +0.000 C 
ATOM     21  CD1 LEU A   6      45.364  86.167 -23.467  0.00  0.00    +0.000 C 
ENDBRANCH  18  19
ENDBRANCH  15  18
ENDBRANCH  12  15
ENDBRANCH  10  11
ENDBRANCH   7  10
ENDBRANCH   5   6
BRANCH   5  22
ATOM     22  CB  LEU A   4      47.448  83.898 -15.007  0.00  0.00    +0.029 C 
BRANCH  22  23
ATOM     23  CG  LEU A   4      48.279  84.554 -13.907  0.00  0.00    +0.002 C 
ATOM     24  CD2 LEU A   4      47.616  84.303 -12.585  0.00  0.00    +0.000 C 
ATOM     25  CD1 LEU A   4      48.496  86.041 -14.129  0.00  0.00    +0.000 C 
ENDBRANCH  22  23
ENDBRANCH   5  22
ENDBRANCH   2   5
BRANCH   1  26
ATOM     26  CA  ILE A   3      44.869  87.148 -17.699  0.00  0.00    +0.149 C 
BRANCH  26  28
ATOM     27  C   PRO A   2      43.145  85.485 -18.294  0.00  0.00    +0.241 C 
ATOM     28  N   ILE A   3      43.604  86.435 -17.478  0.00  0.00    -0.297 N 
ATOM     29  H   ILE A   3      43.037  86.684 -16.642  0.00  0.00    +0.150 HD
ATOM     30  O   PRO A   2      43.763  85.065 -19.289  0.00  0.00    -0.273 OA
BRANCH  27  36
ATOM     31  C   ASP A   1      42.753  83.574 -16.016  0.00  0.00    +0.242 C 
ATOM     32  N   PRO A   2      41.827  84.420 -16.483  0.00  0.00    -0.272 N 
ATOM     33  CD  PRO A   2      40.747  85.062 -15.706  0.00  0.00    +0.094 C 
ATOM     34  CG  PRO A   2      40.366  86.284 -16.564  0.00  0.00    +0.024 C 
ATOM     35  CB  PRO A   2      40.658  85.863 -17.975  0.00  0.00    +0.031 C 
ATOM     36  CA  PRO A   2      41.819  84.844 -17.894  0.00  0.00    +0.152 C 
ATOM     37  O   ASP A   1      43.676  83.161 -16.716  0.00  0.00    -0.273 OA
BRANCH  31  38
ATOM     38  CA  ASP A   1      42.693  83.197 -14.523  0.00  0.00    +0.156 C 
BRANCH  38  39
ATOM     39  N   ASP A   1      42.408  81.815 -14.238  0.00  0.00    -0.238 NA
ATOM     40  H   ASP A   1      42.947  81.319 -13.500  0.00  0.00    +0.142 HD
ENDBRANCH  38  39
BRANCH  38  41
ATOM     41  CB  ASP A   1      44.004  83.546 -13.866  0.00  0.00    +0.140 C 
BRANCH  41  42
ATOM     42  CG  ASP A   1      44.158  84.999 -13.683  0.00  0.00    +0.367 C 
ATOM     43  OD2 ASP A   1      44.273  85.490 -12.553  0.00  0.00    -0.246 OA
ATOM     44  OD1 ASP A   1      44.130  85.733 -14.692  0.00  0.00    -0.246 OA
ENDBRANCH  41  42
ENDBRANCH  38  41
ENDBRANCH  31  38
ENDBRANCH  27  36
ENDBRANCH  26  28
BRANCH  26  45
ATOM     45  CB  ILE A   3      44.966  88.375 -16.776  0.00  0.00    +0.027 C 
ATOM     46  CG2 ILE A   3      46.321  89.056 -16.926  0.00  0.00    +0.002 C 
BRANCH  45  47
ATOM     47  CG1 ILE A   3      43.813  89.346 -17.072  0.00  0.00    +0.002 C 
ATOM     48  CD1 ILE A   3      43.717  90.511 -16.108  0.00  0.00    +0.000 C 
ENDBRANCH  45  47
ENDBRANCH  26  45
ENDBRANCH   1  26
TORSDOF 19
REMARK  Name = ../refined-set-2016/1tog/1tog_pocket.pdb
REMARK  148 active torsions:
REMARK  status: ('A' for Active; 'I' for Inactive)
REMARK    1  A    between atoms: _1  and  _3
REMARK    2  A    between atoms: _3  and  _4
REMARK    3  A    between atoms: _3  and  _6
REMARK    4  A    between atoms: _6  and  _7
REMARK    5  A    between atoms: _11  and  _12
REMARK    6  A    between atoms: _17  and  _19
REMARK    7  A    between atoms: _19  and  _20
REMARK    8  A    between atoms: _19  and  _22
REMARK    9  A    between atoms: _22  and  _23
REMARK   10  A    between atoms: _26  and  _28
REMARK   11  A    between atoms: _28  and  _29
REMARK   12  A    between atoms: _28  and  _31
REMARK   13  A    between atoms: _31  and  _32
REMARK   14  A    between atoms: _35  and  _37
REMARK   15  A    between atoms: _37  and  _38
REMARK   16  A    between atoms: _40  and  _42
REMARK   17  A    between atoms: _42  and  _43
REMARK   18  A    between atoms: _42  and  _45
REMARK   19  A    between atoms: _45  and  _46
REMARK   20  A    between atoms: _49  and  _51
REMARK   21  A    between atoms: _51  and  _52
REMARK   22  A    between atoms: _51  and  _54
REMARK   23  A    between atoms: _54  and  _55
REMARK   24  A    between atoms: _58  and  _60
REMARK   25  A    between atoms: _60  and  _61
REMARK   26  A    between atoms: _63  and  _65
REMARK   27  A    between atoms: _65  and  _66
REMARK   28  A    between atoms: _65  and  _68
REMARK   29  A    between atoms: _68  and  _69
REMARK   30  A    between atoms: _72  and  _74
REMARK   31  A    between atoms: _74  and  _75
REMARK   32  A    between atoms: _77  and  _79
REMARK   33  A    between atoms: _79  and  _80
REMARK   34  A    between atoms: _79  and  _82
REMARK   35  A    between atoms: _85  and  _87
REMARK   36  A    between atoms: _87  and  _88
REMARK   37  A    between atoms: _90  and  _92
REMARK   38  A    between atoms: _92  and  _93
REMARK   39  A    between atoms: _92  and  _95
REMARK   40  A    between atoms: _95  and  _96
REMARK   41  A    between atoms: _98  and  _100
REMARK   42  A    between atoms: _100  and  _101
REMARK   43  A    between atoms: _103  and  _105
REMARK   44  A    between atoms: _105  and  _106
REMARK   45  A    between atoms: _105  and  _108
REMARK   46  A    between atoms: _108  and  _109
REMARK   47  A    between atoms: _112  and  _114
REMARK   48  A    between atoms: _114  and  _115
REMARK   49  A    between atoms: _114  and  _117
REMARK   50  A    between atoms: _117  and  _118
REMARK   51  A    between atoms: _129  and  _130
REMARK   52  A    between atoms: _135  and  _137
REMARK   53  A    between atoms: _137  and  _138
REMARK   54  A    between atoms: _137  and  _140
REMARK   55  A    between atoms: _140  and  _141
REMARK   56  A    between atoms: _146  and  _148
REMARK   57  A    between atoms: _148  and  _149
REMARK   58  A    between atoms: _148  and  _151
REMARK   59  A    between atoms: _151  and  _152
REMARK   60  A    between atoms: _158  and  _159
REMARK   61  A    between atoms: _164  and  _166
REMARK   62  A    between atoms: _166  and  _167
REMARK   63  A    between atoms: _170  and  _172
REMARK   64  A    between atoms: _172  and  _173
REMARK   65  A    between atoms: _172  and  _175
REMARK   66  A    between atoms: _175  and  _176
REMARK   67  A    between atoms: _181  and  _182
REMARK   68  A    between atoms: _184  and  _186
REMARK   69  A    between atoms: _186  and  _187
REMARK   70  A    between atoms: _186  and  _189
REMARK   71  A    between atoms: _189  and  _190
REMARK   72  A    between atoms: _192  and  _194
REMARK   73  A    between atoms: _194  and  _195
REMARK   74  A    between atoms: _194  and  _197
REMARK   75  A    between atoms: _197  and  _198
REMARK   76  A    between atoms: _205  and  _206
REMARK   77  A    between atoms: _206  and  _222
REMARK   78  A    between atoms: _207  and  _209
REMARK   79  A    between atoms: _209  and  _210
REMARK   80  A    between atoms: _210  and  _211
REMARK   81  A    between atoms: _215  and  _217
REMARK   82  A    between atoms: _217  and  _218
REMARK   83  A    between atoms: _217  and  _225
REMARK   84  A    between atoms: _218  and  _219
REMARK   85  A    between atoms: _219  and  _220
REMARK   86  A    between atoms: _220  and  _221
REMARK   87  A    between atoms: _221  and  _222
REMARK   88  A    between atoms: _227  and  _229
REMARK   89  A    between atoms: _229  and  _230
REMARK   90  A    between atoms: _229  and  _232
REMARK   91  A    between atoms: _232  and  _233
REMARK   92  A    between atoms: _238  and  _239
REMARK   93  A    between atoms: _241  and  _243
REMARK   94  A    between atoms: _243  and  _244
REMARK   95  A    between atoms: _243  and  _246
REMARK   96  A    between atoms: _246  and  _247
REMARK   97  A    between atoms: _247  and  _248
REMARK   98  A    between atoms: _248  and  _249
REMARK   99  A    between atoms: _258  and  _260
REMARK  100  A    between atoms: _260  and  _261
REMARK  101  A    between atoms: _260  and  _263
REMARK  102  A    between atoms: _263  and  _264
REMARK  103  A    between atoms: _264  and  _265
REMARK  104  A    between atoms: _267  and  _269
REMARK  105  A    between atoms: _269  and  _270
REMARK  106  A    between atoms: _269  and  _272
REMARK  107  A    between atoms: _272  and  _273
REMARK  108  A    between atoms: _279  and  _281
REMARK  109  A    between atoms: _281  and  _282
REMARK  110  A    between atoms: _281  and  _284
REMARK  111  A    between atoms: _287  and  _289
REMARK  112  A    between atoms: _289  and  _290
REMARK  113  A    between atoms: _289  and  _292
REMARK  114  A    between atoms: _292  and  _293
REMARK  115  A    between atoms: _293  and  _294
REMARK  116  A    between atoms: _294  and  _295
REMARK  117  A    between atoms: _304  and  _306
REMARK  118  A    between atoms: _306  and  _307
REMARK  119  A    between atoms: _306  and  _309
REMARK  120  A    between atoms: _309  and  _310
REMARK  121  A    between atoms: _315  and  _317
REMARK  122  A    between atoms: _317  and  _318
REMARK  123  A    between atoms: _317  and  _320
REMARK  124  A    between atoms: _320  and  _321
REMARK  125  A    between atoms: _326  and  _327
REMARK  126  A    between atoms: _329  and  _331
REMARK  127  A    between atoms: _331  and  _332
REMARK  128  A    between atoms: _331  and  _334
REMARK  129  A    between atoms: _334  and  _335
REMARK  130  A    between atoms: _338  and  _340
REMARK  131  A    between atoms: _340  and  _341
REMARK  132  A    between atoms: _340  and  _343
REMARK  133  A    between atoms: _343  and  _344
REMARK  134  A    between atoms: _344  and  _345
REMARK  135  A    between atoms: _345  and  _346
REMARK  136  A    between atoms: _355  and  _357
REMARK  137  A    between atoms: _357  and  _358
REMARK  138  A    between atoms: _357  and  _360
REMARK  139  A    between atoms: _360  and  _361
REMARK  140  A    between atoms: _366  and  _367
REMARK  141  A    between atoms: _369  and  _371
REMARK  142  A    between atoms: _371  and  _372
REMARK  143  A    between atoms: _371  and  _374
REMARK  144  A    between atoms: _374  and  _375
REMARK  145  A    between atoms: _377  and  _379
REMARK  146  A    between atoms: _379  and  _380
REMARK  147  A    between atoms: _379  and  _382
REMARK  148  A    between atoms: _382  and  _383
REMARK                            x       y       z     vdW  Elec       q    Type
REMARK                         _______ _______ _______ _____ _____    ______ ____
ROOT
ATOM      1  CA  ILE A   3      49.854  90.441 -18.304  0.00  0.00    +0.149 C 
ENDROOT
BRANCH   1   3
ATOM      2  C   GLY A   2      49.045  91.295 -20.485  0.00  0.00    +0.243 C 
ATOM      3  N   ILE A   3      49.562  90.300 -19.736  0.00  0.00    -0.297 N 
ATOM      4  H   ILE A   3      49.764  89.389 -20.195  0.00  0.00    +0.150 HD
ATOM      5  O   GLY A   2      48.786  92.441 -20.044  0.00  0.00    -0.273 OA
BRANCH   2   6
ATOM      6  CA  GLY A   2      48.762  90.949 -21.941  0.00  0.00    +0.176 C 
BRANCH   6   8
ATOM      7  C   LEU A   1      49.701  92.577 -23.527  0.00  0.00    +0.238 C 
ATOM      8  N   GLY A   2      49.803  91.415 -22.868  0.00  0.00    -0.296 N 
ATOM      9  H   GLY A   2      50.646  90.824 -23.017  0.00  0.00    +0.150 HD
ATOM     10  O   LEU A   1      48.804  93.404 -23.309  0.00  0.00    -0.274 OA
BRANCH   7  11
ATOM     11  CA  LEU A   1      50.769  92.850 -24.593  0.00  0.00    +0.145 C 
BRANCH  11  12
ATOM     12  N   LEU A   1      51.246  91.591 -25.147  0.00  0.00    -0.238 NA
ATOM     13  H   LEU A   1      50.546  90.907 -25.499  0.00  0.00    +0.142 HD
ENDBRANCH  11  12
BRANCH  11  14
ATOM     14  CB  LEU A   1      50.198  93.741 -25.720  0.00  0.00    +0.026 C 
BRANCH  14  15
ATOM     15  CG  LEU A   1      51.145  94.239 -26.845  0.00  0.00    +0.002 C 
ATOM     16  CD2 LEU A   1      52.387  94.910 -26.285  0.00  0.00    +0.000 C 
ATOM     17  CD1 LEU A   1      50.432  95.193 -27.857  0.00  0.00    +0.000 C 
ENDBRANCH  14  15
ENDBRANCH  11  14
ENDBRANCH   7  11
ENDBRANCH   6   8
ENDBRANCH   2   6
ENDBRANCH   1   3
BRANCH   1  18
ATOM     18  C   ILE A   3      50.734  91.672 -18.038  0.00  0.00    +0.241 C 
ATOM     19  N   GLY A   4      50.477  92.328 -16.909  0.00  0.00    -0.295 N 
ATOM     20  H   GLY A   4      49.782  91.932 -16.244  0.00  0.00    +0.150 HD
ATOM     21  O   ILE A   3      51.645  91.981 -18.807  0.00  0.00    -0.273 OA
BRANCH  19  22
ATOM     22  CA  GLY A   4      51.133  93.576 -16.576  0.00  0.00    +0.176 C 
BRANCH  22  23
ATOM     23  C   GLY A   4      52.481  93.314 -15.962  0.00  0.00    +0.243 C 
ATOM     24  O   GLY A   4      52.635  93.368 -14.765  0.00  0.00    -0.273 OA
ATOM     25  N   VAL A   5      53.461  93.017 -16.796  0.00  0.00    -0.298 N 
ATOM     26  H   VAL A   5      53.245  92.919 -17.809  0.00  0.00    +0.150 HD
BRANCH  25  27
ATOM     27  CA  VAL A   5      54.823  92.823 -16.352  0.00  0.00    +0.137 C 
BRANCH  27  28
ATOM     28  CB  VAL A   5      55.252  91.356 -16.596  0.00  0.00    +0.026 C 
ATOM     29  CG2 VAL A   5      54.761  90.448 -15.473  0.00  0.00    +0.002 C 
ATOM     30  CG1 VAL A   5      56.722  91.233 -16.738  0.00  0.00    +0.002 C 
ENDBRANCH  27  28
BRANCH  27  31
ATOM     31  C   VAL A   5      55.703  93.865 -17.090  0.00  0.00    +0.227 C 
ATOM     32  O   VAL A   5      55.535  94.124 -18.286  0.00  0.00    -0.286 OA
ENDBRANCH  27  31
ENDBRANCH  25  27
ENDBRANCH  22  23
ENDBRANCH  19  22
ENDBRANCH   1  18
BRANCH   1  33
ATOM     33  CB  ILE A   3      50.548  89.177 -17.712  0.00  0.00    +0.027 C 
ATOM     34  CG2 ILE A   3      50.585  89.251 -16.162  0.00  0.00    +0.002 C 
BRANCH  33  35
ATOM     35  CG1 ILE A   3      49.835  87.881 -18.124  0.00  0.00    +0.002 C 
ATOM     36  CD1 ILE A   3      50.579  86.566 -17.606  0.00  0.00    +0.000 C 
ENDBRANCH  33  35
ENDBRANCH   1  33
TORSDOF 15
REMARK  Name = ../refined-set-2016/1tog/1tog_pocket.pdb
REMARK  148 active torsions:
REMARK  status: ('A' for Active; 'I' for Inactive)
REMARK    1  A    between atoms: _1  and  _3
REMARK    2  A    between atoms: _3  and  _4
REMARK    3  A    between atoms: _3  and  _6
REMARK    4  A    between atoms: _6  and  _7
REMARK    5  A    between atoms: _11  and  _12
REMARK    6  A    between atoms: _17  and  _19
REMARK    7  A    between atoms: _19  and  _20
REMARK    8  A    between atoms: _19  and  _22
REMARK    9  A    between atoms: _22  and  _23
REMARK   10  A    between atoms: _26  and  _28
REMARK   11  A    between atoms: _28  and  _29
REMARK   12  A    between atoms: _28  and  _31
REMARK   13  A    between atoms: _31  and  _32
REMARK   14  A    between atoms: _35  and  _37
REMARK   15  A    between atoms: _37  and  _38
REMARK   16  A    between atoms: _40  and  _42
REMARK   17  A    between atoms: _42  and  _43
REMARK   18  A    between atoms: _42  and  _45
REMARK   19  A    between atoms: _45  and  _46
REMARK   20  A    between atoms: _49  and  _51
REMARK   21  A    between atoms: _51  and  _52
REMARK   22  A    between atoms: _51  and  _54
REMARK   23  A    between atoms: _54  and  _55
REMARK   24  A    between atoms: _58  and  _60
REMARK   25  A    between atoms: _60  and  _61
REMARK   26  A    between atoms: _63  and  _65
REMARK   27  A    between atoms: _65  and  _66
REMARK   28  A    between atoms: _65  and  _68
REMARK   29  A    between atoms: _68  and  _69
REMARK   30  A    between atoms: _72  and  _74
REMARK   31  A    between atoms: _74  and  _75
REMARK   32  A    between atoms: _77  and  _79
REMARK   33  A    between atoms: _79  and  _80
REMARK   34  A    between atoms: _79  and  _82
REMARK   35  A    between atoms: _85  and  _87
REMARK   36  A    between atoms: _87  and  _88
REMARK   37  A    between atoms: _90  and  _92
REMARK   38  A    between atoms: _92  and  _93
REMARK   39  A    between atoms: _92  and  _95
REMARK   40  A    between atoms: _95  and  _96
REMARK   41  A    between atoms: _98  and  _100
REMARK   42  A    between atoms: _100  and  _101
REMARK   43  A    between atoms: _103  and  _105
REMARK   44  A    between atoms: _105  and  _106
REMARK   45  A    between atoms: _105  and  _108
REMARK   46  A    between atoms: _108  and  _109
REMARK   47  A    between atoms: _112  and  _114
REMARK   48  A    between atoms: _114  and  _115
REMARK   49  A    between atoms: _114  and  _117
REMARK   50  A    between atoms: _117  and  _118
REMARK   51  A    between atoms: _129  and  _130
REMARK   52  A    between atoms: _135  and  _137
REMARK   53  A    between atoms: _137  and  _138
REMARK   54  A    between atoms: _137  and  _140
REMARK   55  A    between atoms: _140  and  _141
REMARK   56  A    between atoms: _146  and  _148
REMARK   57  A    between atoms: _148  and  _149
REMARK   58  A    between atoms: _148  and  _151
REMARK   59  A    between atoms: _151  and  _152
REMARK   60  A    between atoms: _158  and  _159
REMARK   61  A    between atoms: _164  and  _166
REMARK   62  A    between atoms: _166  and  _167
REMARK   63  A    between atoms: _170  and  _172
REMARK   64  A    between atoms: _172  and  _173
REMARK   65  A    between atoms: _172  and  _175
REMARK   66  A    between atoms: _175  and  _176
REMARK   67  A    between atoms: _181  and  _182
REMARK   68  A    between atoms: _184  and  _186
REMARK   69  A    between atoms: _186  and  _187
REMARK   70  A    between atoms: _186  and  _189
REMARK   71  A    between atoms: _189  and  _190
REMARK   72  A    between atoms: _192  and  _194
REMARK   73  A    between atoms: _194  and  _195
REMARK   74  A    between atoms: _194  and  _197
REMARK   75  A    between atoms: _197  and  _198
REMARK   76  A    between atoms: _205  and  _206
REMARK   77  A    between atoms: _206  and  _222
REMARK   78  A    between atoms: _207  and  _209
REMARK   79  A    between atoms: _209  and  _210
REMARK   80  A    between atoms: _210  and  _211
REMARK   81  A    between atoms: _215  and  _217
REMARK   82  A    between atoms: _217  and  _218
REMARK   83  A    between atoms: _217  and  _225
REMARK   84  A    between atoms: _218  and  _219
REMARK   85  A    between atoms: _219  and  _220
REMARK   86  A    between atoms: _220  and  _221
REMARK   87  A    between atoms: _221  and  _222
REMARK   88  A    between atoms: _227  and  _229
REMARK   89  A    between atoms: _229  and  _230
REMARK   90  A    between atoms: _229  and  _232
REMARK   91  A    between atoms: _232  and  _233
REMARK   92  A    between atoms: _238  and  _239
REMARK   93  A    between atoms: _241  and  _243
REMARK   94  A    between atoms: _243  and  _244
REMARK   95  A    between atoms: _243  and  _246
REMARK   96  A    between atoms: _246  and  _247
REMARK   97  A    between atoms: _247  and  _248
REMARK   98  A    between atoms: _248  and  _249
REMARK   99  A    between atoms: _258  and  _260
REMARK  100  A    between atoms: _260  and  _261
REMARK  101  A    between atoms: _260  and  _263
REMARK  102  A    between atoms: _263  and  _264
REMARK  103  A    between atoms: _264  and  _265
REMARK  104  A    between atoms: _267  and  _269
REMARK  105  A    between atoms: _269  and  _270
REMARK  106  A    between atoms: _269  and  _272
REMARK  107  A    between atoms: _272  and  _273
REMARK  108  A    between atoms: _279  and  _281
REMARK  109  A    between atoms: _281  and  _282
REMARK  110  A    between atoms: _281  and  _284
REMARK  111  A    between atoms: _287  and  _289
REMARK  112  A    between atoms: _289  and  _290
REMARK  113  A    between atoms: _289  and  _292
REMARK  114  A    between atoms: _292  and  _293
REMARK  115  A    between atoms: _293  and  _294
REMARK  116  A    between atoms: _294  and  _295
REMARK  117  A    between atoms: _304  and  _306
REMARK  118  A    between atoms: _306  and  _307
REMARK  119  A    between atoms: _306  and  _309
REMARK  120  A    between atoms: _309  and  _310
REMARK  121  A    between atoms: _315  and  _317
REMARK  122  A    between atoms: _317  and  _318
REMARK  123  A    between atoms: _317  and  _320
REMARK  124  A    between atoms: _320  and  _321
REMARK  125  A    between atoms: _326  and  _327
REMARK  126  A    between atoms: _329  and  _331
REMARK  127  A    between atoms: _331  and  _332
REMARK  128  A    between atoms: _331  and  _334
REMARK  129  A    between atoms: _334  and  _335
REMARK  130  A    between atoms: _338  and  _340
REMARK  131  A    between atoms: _340  and  _341
REMARK  132  A    between atoms: _340  and  _343
REMARK  133  A    between atoms: _343  and  _344
REMARK  134  A    between atoms: _344  and  _345
REMARK  135  A    between atoms: _345  and  _346
REMARK  136  A    between atoms: _355  and  _357
REMARK  137  A    between atoms: _357  and  _358
REMARK  138  A    between atoms: _357  and  _360
REMARK  139  A    between atoms: _360  and  _361
REMARK  140  A    between atoms: _366  and  _367
REMARK  141  A    between atoms: _369  and  _371
REMARK  142  A    between atoms: _371  and  _372
REMARK  143  A    between atoms: _371  and  _374
REMARK  144  A    between atoms: _374  and  _375
REMARK  145  A    between atoms: _377  and  _379
REMARK  146  A    between atoms: _379  and  _380
REMARK  147  A    between atoms: _379  and  _382
REMARK  148  A    between atoms: _382  and  _383
REMARK                            x       y       z     vdW  Elec       q    Type
REMARK                         _______ _______ _______ _____ _____    ______ ____
ROOT
ATOM      1  CA  SER A   2      46.357  89.016  -4.295  0.00  0.00    +0.178 C 
ENDROOT
BRANCH   1   4
ATOM      2  C   GLY A   1      47.274  91.061  -3.220  0.00  0.00    +0.240 C 
ATOM      3  O   GLY A   1      46.258  91.268  -2.582  0.00  0.00    -0.274 OA
ATOM      4  N   SER A   2      47.413  90.046  -4.083  0.00  0.00    -0.295 N 
ATOM      5  H   SER A   2      48.296  89.974  -4.628  0.00  0.00    +0.150 HD
BRANCH   2   6
ATOM      6  CA  GLY A   1      48.466  91.956  -3.014  0.00  0.00    +0.169 C 
BRANCH   6   7
ATOM      7  N   GLY A   1      49.613  91.131  -3.276  0.00  0.00    -0.236 NA
ATOM      8  H   GLY A   1      50.156  91.288  -4.149  0.00  0.00    +0.142 HD
ENDBRANCH   6   7
ENDBRANCH   2   6
ENDBRANCH   1   4
BRANCH   1   9
ATOM      9  C   SER A   2      46.032  88.256  -3.007  0.00  0.00    +0.243 C 
ATOM     10  N   GLY A   3      47.068  87.718  -2.361  0.00  0.00    -0.296 N 
ATOM     11  H   GLY A   3      47.992  87.676  -2.837  0.00  0.00    +0.150 HD
ATOM     12  O   SER A   2      44.871  88.118  -2.641  0.00  0.00    -0.273 OA
BRANCH  10  13
ATOM     13  CA  GLY A   3      46.946  87.188  -1.009  0.00  0.00    +0.163 C 
BRANCH  13  14
ATOM     14  C   GLY A   3      46.329  88.178  -0.019  0.00  0.00    +0.229 C 
ATOM     15  O   GLY A   3      45.443  87.790   0.775  0.00  0.00    -0.286 OA
ENDBRANCH  13  14
ENDBRANCH  10  13
ENDBRANCH   1   9
BRANCH   1  16
ATOM     16  CB  SER A   2      46.792  87.984  -5.359  0.00  0.00    +0.166 C 
BRANCH  16  17
ATOM     17  OG  SER A   2      46.801  88.542  -6.662  0.00  0.00    -0.380 OA
ATOM     18  H   SER A   2      47.434  89.303  -6.690  0.00  0.00    +0.211 HD
ENDBRANCH  16  17
ENDBRANCH   1  16
TORSDOF 8
REMARK  Name = ../refined-set-2016/1tog/1tog_pocket.pdb
REMARK  148 active torsions:
REMARK  status: ('A' for Active; 'I' for Inactive)
REMARK    1  A    between atoms: _1  and  _3
REMARK    2  A    between atoms: _3  and  _4
REMARK    3  A    between atoms: _3  and  _6
REMARK    4  A    between atoms: _6  and  _7
REMARK    5  A    between atoms: _11  and  _12
REMARK    6  A    between atoms: _17  and  _19
REMARK    7  A    between atoms: _19  and  _20
REMARK    8  A    between atoms: _19  and  _22
REMARK    9  A    between atoms: _22  and  _23
REMARK   10  A    between atoms: _26  and  _28
REMARK   11  A    between atoms: _28  and  _29
REMARK   12  A    between atoms: _28  and  _31
REMARK   13  A    between atoms: _31  and  _32
REMARK   14  A    between atoms: _35  and  _37
REMARK   15  A    between atoms: _37  and  _38
REMARK   16  A    between atoms: _40  and  _42
REMARK   17  A    between atoms: _42  and  _43
REMARK   18  A    between atoms: _42  and  _45
REMARK   19  A    between atoms: _45  and  _46
REMARK   20  A    between atoms: _49  and  _51
REMARK   21  A    between atoms: _51  and  _52
REMARK   22  A    between atoms: _51  and  _54
REMARK   23  A    between atoms: _54  and  _55
REMARK   24  A    between atoms: _58  and  _60
REMARK   25  A    between atoms: _60  and  _61
REMARK   26  A    between atoms: _63  and  _65
REMARK   27  A    between atoms: _65  and  _66
REMARK   28  A    between atoms: _65  and  _68
REMARK   29  A    between atoms: _68  and  _69
REMARK   30  A    between atoms: _72  and  _74
REMARK   31  A    between atoms: _74  and  _75
REMARK   32  A    between atoms: _77  and  _79
REMARK   33  A    between atoms: _79  and  _80
REMARK   34  A    between atoms: _79  and  _82
REMARK   35  A    between atoms: _85  and  _87
REMARK   36  A    between atoms: _87  and  _88
REMARK   37  A    between atoms: _90  and  _92
REMARK   38  A    between atoms: _92  and  _93
REMARK   39  A    between atoms: _92  and  _95
REMARK   40  A    between atoms: _95  and  _96
REMARK   41  A    between atoms: _98  and  _100
REMARK   42  A    between atoms: _100  and  _101
REMARK   43  A    between atoms: _103  and  _105
REMARK   44  A    between atoms: _105  and  _106
REMARK   45  A    between atoms: _105  and  _108
REMARK   46  A    between atoms: _108  and  _109
REMARK   47  A    between atoms: _112  and  _114
REMARK   48  A    between atoms: _114  and  _115
REMARK   49  A    between atoms: _114  and  _117
REMARK   50  A    between atoms: _117  and  _118
REMARK   51  A    between atoms: _129  and  _130
REMARK   52  A    between atoms: _135  and  _137
REMARK   53  A    between atoms: _137  and  _138
REMARK   54  A    between atoms: _137  and  _140
REMARK   55  A    between atoms: _140  and  _141
REMARK   56  A    between atoms: _146  and  _148
REMARK   57  A    between atoms: _148  and  _149
REMARK   58  A    between atoms: _148  and  _151
REMARK   59  A    between atoms: _151  and  _152
REMARK   60  A    between atoms: _158  and  _159
REMARK   61  A    between atoms: _164  and  _166
REMARK   62  A    between atoms: _166  and  _167
REMARK   63  A    between atoms: _170  and  _172
REMARK   64  A    between atoms: _172  and  _173
REMARK   65  A    between atoms: _172  and  _175
REMARK   66  A    between atoms: _175  and  _176
REMARK   67  A    between atoms: _181  and  _182
REMARK   68  A    between atoms: _184  and  _186
REMARK   69  A    between atoms: _186  and  _187
REMARK   70  A    between atoms: _186  and  _189
REMARK   71  A    between atoms: _189  and  _190
REMARK   72  A    between atoms: _192  and  _194
REMARK   73  A    between atoms: _194  and  _195
REMARK   74  A    between atoms: _194  and  _197
REMARK   75  A    between atoms: _197  and  _198
REMARK   76  A    between atoms: _205  and  _206
REMARK   77  A    between atoms: _206  and  _222
REMARK   78  A    between atoms: _207  and  _209
REMARK   79  A    between atoms: _209  and  _210
REMARK   80  A    between atoms: _210  and  _211
REMARK   81  A    between atoms: _215  and  _217
REMARK   82  A    between atoms: _217  and  _218
REMARK   83  A    between atoms: _217  and  _225
REMARK   84  A    between atoms: _218  and  _219
REMARK   85  A    between atoms: _219  and  _220
REMARK   86  A    between atoms: _220  and  _221
REMARK   87  A    between atoms: _221  and  _222
REMARK   88  A    between atoms: _227  and  _229
REMARK   89  A    between atoms: _229  and  _230
REMARK   90  A    between atoms: _229  and  _232
REMARK   91  A    between atoms: _232  and  _233
REMARK   92  A    between atoms: _238  and  _239
REMARK   93  A    between atoms: _241  and  _243
REMARK   94  A    between atoms: _243  and  _244
REMARK   95  A    between atoms: _243  and  _246
REMARK   96  A    between atoms: _246  and  _247
REMARK   97  A    between atoms: _247  and  _248
REMARK   98  A    between atoms: _248  and  _249
REMARK   99  A    between atoms: _258  and  _260
REMARK  100  A    between atoms: _260  and  _261
REMARK  101  A    between atoms: _260  and  _263
REMARK  102  A    between atoms: _263  and  _264
REMARK  103  A    between atoms: _264  and  _265
REMARK  104  A    between atoms: _267  and  _269
REMARK  105  A    between atoms: _269  and  _270
REMARK  106  A    between atoms: _269  and  _272
REMARK  107  A    between atoms: _272  and  _273
REMARK  108  A    between atoms: _279  and  _281
REMARK  109  A    between atoms: _281  and  _282
REMARK  110  A    between atoms: _281  and  _284
REMARK  111  A    between atoms: _287  and  _289
REMARK  112  A    between atoms: _289  and  _290
REMARK  113  A    between atoms: _289  and  _292
REMARK  114  A    between atoms: _292  and  _293
REMARK  115  A    between atoms: _293  and  _294
REMARK  116  A    between atoms: _294  and  _295
REMARK  117  A    between atoms: _304  and  _306
REMARK  118  A    between atoms: _306  and  _307
REMARK  119  A    between atoms: _306  and  _309
REMARK  120  A    between atoms: _309  and  _310
REMARK  121  A    between atoms: _315  and  _317
REMARK  122  A    between atoms: _317  and  _318
REMARK  123  A    between atoms: _317  and  _320
REMARK  124  A    between atoms: _320  and  _321
REMARK  125  A    between atoms: _326  and  _327
REMARK  126  A    between atoms: _329  and  _331
REMARK  127  A    between atoms: _331  and  _332
REMARK  128  A    between atoms: _331  and  _334
REMARK  129  A    between atoms: _334  and  _335
REMARK  130  A    between atoms: _338  and  _340
REMARK  131  A    between atoms: _340  and  _341
REMARK  132  A    between atoms: _340  and  _343
REMARK  133  A    between atoms: _343  and  _344
REMARK  134  A    between atoms: _344  and  _345
REMARK  135  A    between atoms: _345  and  _346
REMARK  136  A    between atoms: _355  and  _357
REMARK  137  A    between atoms: _357  and  _358
REMARK  138  A    between atoms: _357  and  _360
REMARK  139  A    between atoms: _360  and  _361
REMARK  140  A    between atoms: _366  and  _367
REMARK  141  A    between atoms: _369  and  _371
REMARK  142  A    between atoms: _371  and  _372
REMARK  143  A    between atoms: _371  and  _374
REMARK  144  A    between atoms: _374  and  _375
REMARK  145  A    between atoms: _377  and  _379
REMARK  146  A    between atoms: _379  and  _380
REMARK  147  A    between atoms: _379  and  _382
REMARK  148  A    between atoms: _382  and  _383
REMARK                            x       y       z     vdW  Elec       q    Type
REMARK                         _______ _______ _______ _____ _____    ______ ____
ROOT
ATOM      1  CA  LEU A   1      42.749  90.764  -1.006  0.00  0.00    +0.133 C 
ENDROOT
BRANCH   1   2
ATOM      2  N   LEU A   1      44.185  90.644  -0.698  0.00  0.00    -0.239 NA
ATOM      3  H   LEU A   1      44.870  90.533  -1.473  0.00  0.00    +0.142 HD
ENDBRANCH   1   2
BRANCH   1   4
ATOM      4  C   LEU A   1      41.930  89.586  -0.452  0.00  0.00    +0.224 C 
ATOM      5  O   LEU A   1      40.869  89.790   0.137  0.00  0.00    -0.287 OA
ENDBRANCH   1   4
BRANCH   1   6
ATOM      6  CB  LEU A   1      42.536  90.921  -2.513  0.00  0.00    +0.025 C 
BRANCH   6   7
ATOM      7  CG  LEU A   1      43.129  92.206  -3.099  0.00  0.00    +0.002 C 
ATOM      8  CD2 LEU A   1      42.162  93.357  -2.876  0.00  0.00    +0.000 C 
ATOM      9  CD1 LEU A   1      43.422  92.027  -4.576  0.00  0.00    +0.000 C 
ENDBRANCH   6   7
ENDBRANCH   1   6
TORSDOF 4
REMARK  Name = ../refined-set-2016/1tog/1tog_pocket.pdb
REMARK  148 active torsions:
REMARK  status: ('A' for Active; 'I' for Inactive)
REMARK    1  A    between atoms: _1  and  _3
REMARK    2  A    between atoms: _3  and  _4
REMARK    3  A    between atoms: _3  and  _6
REMARK    4  A    between atoms: _6  and  _7
REMARK    5  A    between atoms: _11  and  _12
REMARK    6  A    between atoms: _17  and  _19
REMARK    7  A    between atoms: _19  and  _20
REMARK    8  A    between atoms: _19  and  _22
REMARK    9  A    between atoms: _22  and  _23
REMARK   10  A    between atoms: _26  and  _28
REMARK   11  A    between atoms: _28  and  _29
REMARK   12  A    between atoms: _28  and  _31
REMARK   13  A    between atoms: _31  and  _32
REMARK   14  A    between atoms: _35  and  _37
REMARK   15  A    between atoms: _37  and  _38
REMARK   16  A    between atoms: _40  and  _42
REMARK   17  A    between atoms: _42  and  _43
REMARK   18  A    between atoms: _42  and  _45
REMARK   19  A    between atoms: _45  and  _46
REMARK   20  A    between atoms: _49  and  _51
REMARK   21  A    between atoms: _51  and  _52
REMARK   22  A    between atoms: _51  and  _54
REMARK   23  A    between atoms: _54  and  _55
REMARK   24  A    between atoms: _58  and  _60
REMARK   25  A    between atoms: _60  and  _61
REMARK   26  A    between atoms: _63  and  _65
REMARK   27  A    between atoms: _65  and  _66
REMARK   28  A    between atoms: _65  and  _68
REMARK   29  A    between atoms: _68  and  _69
REMARK   30  A    between atoms: _72  and  _74
REMARK   31  A    between atoms: _74  and  _75
REMARK   32  A    between atoms: _77  and  _79
REMARK   33  A    between atoms: _79  and  _80
REMARK   34  A    between atoms: _79  and  _82
REMARK   35  A    between atoms: _85  and  _87
REMARK   36  A    between atoms: _87  and  _88
REMARK   37  A    between atoms: _90  and  _92
REMARK   38  A    between atoms: _92  and  _93
REMARK   39  A    between atoms: _92  and  _95
REMARK   40  A    between atoms: _95  and  _96
REMARK   41  A    between atoms: _98  and  _100
REMARK   42  A    between atoms: _100  and  _101
REMARK   43  A    between atoms: _103  and  _105
REMARK   44  A    between atoms: _105  and  _106
REMARK   45  A    between atoms: _105  and  _108
REMARK   46  A    between atoms: _108  and  _109
REMARK   47  A    between atoms: _112  and  _114
REMARK   48  A    between atoms: _114  and  _115
REMARK   49  A    between atoms: _114  and  _117
REMARK   50  A    between atoms: _117  and  _118
REMARK   51  A    between atoms: _129  and  _130
REMARK   52  A    between atoms: _135  and  _137
REMARK   53  A    between atoms: _137  and  _138
REMARK   54  A    between atoms: _137  and  _140
REMARK   55  A    between atoms: _140  and  _141
REMARK   56  A    between atoms: _146  and  _148
REMARK   57  A    between atoms: _148  and  _149
REMARK   58  A    between atoms: _148  and  _151
REMARK   59  A    between atoms: _151  and  _152
REMARK   60  A    between atoms: _158  and  _159
REMARK   61  A    between atoms: _164  and  _166
REMARK   62  A    between atoms: _166  and  _167
REMARK   63  A    between atoms: _170  and  _172
REMARK   64  A    between atoms: _172  and  _173
REMARK   65  A    between atoms: _172  and  _175
REMARK   66  A    between atoms: _175  and  _176
REMARK   67  A    between atoms: _181  and  _182
REMARK   68  A    between atoms: _184  and  _186
REMARK   69  A    between atoms: _186  and  _187
REMARK   70  A    between atoms: _186  and  _189
REMARK   71  A    between atoms: _189  and  _190
REMARK   72  A    between atoms: _192  and  _194
REMARK   73  A    between atoms: _194  and  _195
REMARK   74  A    between atoms: _194  and  _197
REMARK   75  A    between atoms: _197  and  _198
REMARK   76  A    between atoms: _205  and  _206
REMARK   77  A    between atoms: _206  and  _222
REMARK   78  A    between atoms: _207  and  _209
REMARK   79  A    between atoms: _209  and  _210
REMARK   80  A    between atoms: _210  and  _211
REMARK   81  A    between atoms: _215  and  _217
REMARK   82  A    between atoms: _217  and  _218
REMARK   83  A    between atoms: _217  and  _225
REMARK   84  A    between atoms: _218  and  _219
REMARK   85  A    between atoms: _219  and  _220
REMARK   86  A    between atoms: _220  and  _221
REMARK   87  A    between atoms: _221  and  _222
REMARK   88  A    between atoms: _227  and  _229
REMARK   89  A    between atoms: _229  and  _230
REMARK   90  A    between atoms: _229  and  _232
REMARK   91  A    between atoms: _232  and  _233
REMARK   92  A    between atoms: _238  and  _239
REMARK   93  A    between atoms: _241  and  _243
REMARK   94  A    between atoms: _243  and  _244
REMARK   95  A    between atoms: _243  and  _246
REMARK   96  A    between atoms: _246  and  _247
REMARK   97  A    between atoms: _247  and  _248
REMARK   98  A    between atoms: _248  and  _249
REMARK   99  A    between atoms: _258  and  _260
REMARK  100  A    between atoms: _260  and  _261
REMARK  101  A    between atoms: _260  and  _263
REMARK  102  A    between atoms: _263  and  _264
REMARK  103  A    between atoms: _264  and  _265
REMARK  104  A    between atoms: _267  and  _269
REMARK  105  A    between atoms: _269  and  _270
REMARK  106  A    between atoms: _269  and  _272
REMARK  107  A    between atoms: _272  and  _273
REMARK  108  A    between atoms: _279  and  _281
REMARK  109  A    between atoms: _281  and  _282
REMARK  110  A    between atoms: _281  and  _284
REMARK  111  A    between atoms: _287  and  _289
REMARK  112  A    between atoms: _289  and  _290
REMARK  113  A    between atoms: _289  and  _292
REMARK  114  A    between atoms: _292  and  _293
REMARK  115  A    between atoms: _293  and  _294
REMARK  116  A    between atoms: _294  and  _295
REMARK  117  A    between atoms: _304  and  _306
REMARK  118  A    between atoms: _306  and  _307
REMARK  119  A    between atoms: _306  and  _309
REMARK  120  A    between atoms: _309  and  _310
REMARK  121  A    between atoms: _315  and  _317
REMARK  122  A    between atoms: _317  and  _318
REMARK  123  A    between atoms: _317  and  _320
REMARK  124  A    between atoms: _320  and  _321
REMARK  125  A    between atoms: _326  and  _327
REMARK  126  A    between atoms: _329  and  _331
REMARK  127  A    between atoms: _331  and  _332
REMARK  128  A    between atoms: _331  and  _334
REMARK  129  A    between atoms: _334  and  _335
REMARK  130  A    between atoms: _338  and  _340
REMARK  131  A    between atoms: _340  and  _341
REMARK  132  A    between atoms: _340  and  _343
REMARK  133  A    between atoms: _343  and  _344
REMARK  134  A    between atoms: _344  and  _345
REMARK  135  A    between atoms: _345  and  _346
REMARK  136  A    between atoms: _355  and  _357
REMARK  137  A    between atoms: _357  and  _358
REMARK  138  A    between atoms: _357  and  _360
REMARK  139  A    between atoms: _360  and  _361
REMARK  140  A    between atoms: _366  and  _367
REMARK  141  A    between atoms: _369  and  _371
REMARK  142  A    between atoms: _371  and  _372
REMARK  143  A    between atoms: _371  and  _374
REMARK  144  A    between atoms: _374  and  _375
REMARK  145  A    between atoms: _377  and  _379
REMARK  146  A    between atoms: _379  and  _380
REMARK  147  A    between atoms: _379  and  _382
REMARK  148  A    between atoms: _382  and  _383
REMARK                            x       y       z     vdW  Elec       q    Type
REMARK                         _______ _______ _______ _____ _____    ______ ____
ROOT
ATOM      1  C   TRP A   1      39.377  92.883 -12.228  0.00  0.00    +0.242 C 
ATOM      2  O   TRP A   1      38.638  92.800 -11.260  0.00  0.00    -0.273 OA
ATOM      3  N   PRO A   2      39.451  91.923 -13.152  0.00  0.00    -0.272 N 
ATOM      4  CA  PRO A   2      38.600  90.713 -13.044  0.00  0.00    +0.152 C 
ATOM      5  CB  PRO A   2      39.033  89.825 -14.225  0.00  0.00    +0.031 C 
ATOM      6  CG  PRO A   2      39.657  90.794 -15.241  0.00  0.00    +0.024 C 
ATOM      7  CD  PRO A   2      40.226  91.961 -14.406  0.00  0.00    +0.094 C 
ENDROOT
BRANCH   4   8
ATOM      8  C   PRO A   2      38.721  89.972 -11.734  0.00  0.00    +0.241 C 
ATOM      9  N   ASN A   3      39.911  89.925 -11.148  0.00  0.00    -0.298 N 
ATOM     10  H   ASN A   3      40.722  90.441 -11.545  0.00  0.00    +0.150 HD
ATOM     11  O   PRO A   2      37.720  89.483 -11.234  0.00  0.00    -0.273 OA
BRANCH   9  12
ATOM     12  CA  ASN A   3      40.049  89.138  -9.944  0.00  0.00    +0.146 C 
BRANCH  12  13
ATOM     13  C   ASN A   3      39.368  89.716  -8.706  0.00  0.00    +0.227 C 
ATOM     14  O   ASN A   3      39.108  88.990  -7.767  0.00  0.00    -0.286 OA
ENDBRANCH  12  13
BRANCH  12  15
ATOM     15  CB  ASN A   3      41.503  88.792  -9.658  0.00  0.00    +0.112 C 
BRANCH  15  16
ATOM     16  CG  ASN A   3      42.085  87.850 -10.664  0.00  0.00    +0.222 C 
ATOM     17  OD1 ASN A   3      43.312  87.690 -10.729  0.00  0.00    -0.275 OA
ATOM     18  ND2 ASN A   3      41.239  87.233 -11.476  0.00  0.00    -0.329 N 
ATOM     19 HD21 ASN A   3      40.216  87.398 -11.384  0.00  0.00    +0.145 HD
ATOM     20 HD22 ASN A   3      41.598  86.584 -12.205  0.00  0.00    +0.145 HD
ENDBRANCH  15  16
ENDBRANCH  12  15
ENDBRANCH   9  12
ENDBRANCH   4   8
BRANCH   1  21
ATOM     21  CA  TRP A   1      40.188  94.154 -12.450  0.00  0.00    +0.149 C 
BRANCH  21  22
ATOM     22  N   TRP A   1      39.273  95.255 -12.355  0.00  0.00    -0.238 NA
ATOM     23  H   TRP A   1      39.381  95.950 -11.589  0.00  0.00    +0.142 HD
ENDBRANCH  21  22
BRANCH  21  24
ATOM     24  CB  TRP A   1      41.223  94.319 -11.376  0.00  0.00    +0.054 C 
BRANCH  24  25
ATOM     25  CG  TRP A   1      42.464  93.530 -11.548  0.00  0.00    -0.002 A 
ATOM     26  CD2 TRP A   1      43.100  92.737 -10.533  0.00  0.00    +0.013 A 
ATOM     27  CE3 TRP A   1      42.791  92.436  -9.192  0.00  0.00    +0.001 A 
ATOM     28  CZ3 TRP A   1      43.644  91.590  -8.481  0.00  0.00    +0.000 A 
ATOM     29  CH2 TRP A   1      44.811  91.055  -9.089  0.00  0.00    +0.001 A 
ATOM     30  CZ2 TRP A   1      45.146  91.353 -10.386  0.00  0.00    +0.017 A 
ATOM     31  CE2 TRP A   1      44.284  92.202 -11.098  0.00  0.00    +0.056 A 
ATOM     32  NE1 TRP A   1      44.351  92.653 -12.393  0.00  0.00    -0.352 N 
ATOM     33  HE1 TRP A   1      45.101  92.418 -13.074  0.00  0.00    +0.166 HD
ATOM     34  CD1 TRP A   1      43.266  93.467 -12.650  0.00  0.00    +0.068 A 
ENDBRANCH  24  25
ENDBRANCH  21  24
ENDBRANCH   1  21
TORSDOF 9
REMARK  Name = ../refined-set-2016/1tog/1tog_pocket.pdb
REMARK  148 active torsions:
REMARK  status: ('A' for Active; 'I' for Inactive)
REMARK    1  A    between atoms: _1  and  _3
REMARK    2  A    between atoms: _3  and  _4
REMARK    3  A    between atoms: _3  and  _6
REMARK    4  A    between atoms: _6  and  _7
REMARK    5  A    between atoms: _11  and  _12
REMARK    6  A    between atoms: _17  and  _19
REMARK    7  A    between atoms: _19  and  _20
REMARK    8  A    between atoms: _19  and  _22
REMARK    9  A    between atoms: _22  and  _23
REMARK   10  A    between atoms: _26  and  _28
REMARK   11  A    between atoms: _28  and  _29
REMARK   12  A    between atoms: _28  and  _31
REMARK   13  A    between atoms: _31  and  _32
REMARK   14  A    between atoms: _35  and  _37
REMARK   15  A    between atoms: _37  and  _38
REMARK   16  A    between atoms: _40  and  _42
REMARK   17  A    between atoms: _42  and  _43
REMARK   18  A    between atoms: _42  and  _45
REMARK   19  A    between atoms: _45  and  _46
REMARK   20  A    between atoms: _49  and  _51
REMARK   21  A    between atoms: _51  and  _52
REMARK   22  A    between atoms: _51  and  _54
REMARK   23  A    between atoms: _54  and  _55
REMARK   24  A    between atoms: _58  and  _60
REMARK   25  A    between atoms: _60  and  _61
REMARK   26  A    between atoms: _63  and  _65
REMARK   27  A    between atoms: _65  and  _66
REMARK   28  A    between atoms: _65  and  _68
REMARK   29  A    between atoms: _68  and  _69
REMARK   30  A    between atoms: _72  and  _74
REMARK   31  A    between atoms: _74  and  _75
REMARK   32  A    between atoms: _77  and  _79
REMARK   33  A    between atoms: _79  and  _80
REMARK   34  A    between atoms: _79  and  _82
REMARK   35  A    between atoms: _85  and  _87
REMARK   36  A    between atoms: _87  and  _88
REMARK   37  A    between atoms: _90  and  _92
REMARK   38  A    between atoms: _92  and  _93
REMARK   39  A    between atoms: _92  and  _95
REMARK   40  A    between atoms: _95  and  _96
REMARK   41  A    between atoms: _98  and  _100
REMARK   42  A    between atoms: _100  and  _101
REMARK   43  A    between atoms: _103  and  _105
REMARK   44  A    between atoms: _105  and  _106
REMARK   45  A    between atoms: _105  and  _108
REMARK   46  A    between atoms: _108  and  _109
REMARK   47  A    between atoms: _112  and  _114
REMARK   48  A    between atoms: _114  and  _115
REMARK   49  A    between atoms: _114  and  _117
REMARK   50  A    between atoms: _117  and  _118
REMARK   51  A    between atoms: _129  and  _130
REMARK   52  A    between atoms: _135  and  _137
REMARK   53  A    between atoms: _137  and  _138
REMARK   54  A    between atoms: _137  and  _140
REMARK   55  A    between atoms: _140  and  _141
REMARK   56  A    between atoms: _146  and  _148
REMARK   57  A    between atoms: _148  and  _149
REMARK   58  A    between atoms: _148  and  _151
REMARK   59  A    between atoms: _151  and  _152
REMARK   60  A    between atoms: _158  and  _159
REMARK   61  A    between atoms: _164  and  _166
REMARK   62  A    between atoms: _166  and  _167
REMARK   63  A    between atoms: _170  and  _172
REMARK   64  A    between atoms: _172  and  _173
REMARK   65  A    between atoms: _172  and  _175
REMARK   66  A    between atoms: _175  and  _176
REMARK   67  A    between atoms: _181  and  _182
REMARK   68  A    between atoms: _184  and  _186
REMARK   69  A    between atoms: _186  and  _187
REMARK   70  A    between atoms: _186  and  _189
REMARK   71  A    between atoms: _189  and  _190
REMARK   72  A    between atoms: _192  and  _194
REMARK   73  A    between atoms: _194  and  _195
REMARK   74  A    between atoms: _194  and  _197
REMARK   75  A    between atoms: _197  and  _198
REMARK   76  A    between atoms: _205  and  _206
REMARK   77  A    between atoms: _206  and  _222
REMARK   78  A    between atoms: _207  and  _209
REMARK   79  A    between atoms: _209  and  _210
REMARK   80  A    between atoms: _210  and  _211
REMARK   81  A    between atoms: _215  and  _217
REMARK   82  A    between atoms: _217  and  _218
REMARK   83  A    between atoms: _217  and  _225
REMARK   84  A    between atoms: _218  and  _219
REMARK   85  A    between atoms: _219  and  _220
REMARK   86  A    between atoms: _220  and  _221
REMARK   87  A    between atoms: _221  and  _222
REMARK   88  A    between atoms: _227  and  _229
REMARK   89  A    between atoms: _229  and  _230
REMARK   90  A    between atoms: _229  and  _232
REMARK   91  A    between atoms: _232  and  _233
REMARK   92  A    between atoms: _238  and  _239
REMARK   93  A    between atoms: _241  and  _243
REMARK   94  A    between atoms: _243  and  _244
REMARK   95  A    between atoms: _243  and  _246
REMARK   96  A    between atoms: _246  and  _247
REMARK   97  A    between atoms: _247  and  _248
REMARK   98  A    between atoms: _248  and  _249
REMARK   99  A    between atoms: _258  and  _260
REMARK  100  A    between atoms: _260  and  _261
REMARK  101  A    between atoms: _260  and  _263
REMARK  102  A    between atoms: _263  and  _264
REMARK  103  A    between atoms: _264  and  _265
REMARK  104  A    between atoms: _267  and  _269
REMARK  105  A    between atoms: _269  and  _270
REMARK  106  A    between atoms: _269  and  _272
REMARK  107  A    between atoms: _272  and  _273
REMARK  108  A    between atoms: _279  and  _281
REMARK  109  A    between atoms: _281  and  _282
REMARK  110  A    between atoms: _281  and  _284
REMARK  111  A    between atoms: _287  and  _289
REMARK  112  A    between atoms: _289  and  _290
REMARK  113  A    between atoms: _289  and  _292
REMARK  114  A    between atoms: _292  and  _293
REMARK  115  A    between atoms: _293  and  _294
REMARK  116  A    between atoms: _294  and  _295
REMARK  117  A    between atoms: _304  and  _306
REMARK  118  A    between atoms: _306  and  _307
REMARK  119  A    between atoms: _306  and  _309
REMARK  120  A    between atoms: _309  and  _310
REMARK  121  A    between atoms: _315  and  _317
REMARK  122  A    between atoms: _317  and  _318
REMARK  123  A    between atoms: _317  and  _320
REMARK  124  A    between atoms: _320  and  _321
REMARK  125  A    between atoms: _326  and  _327
REMARK  126  A    between atoms: _329  and  _331
REMARK  127  A    between atoms: _331  and  _332
REMARK  128  A    between atoms: _331  and  _334
REMARK  129  A    between atoms: _334  and  _335
REMARK  130  A    between atoms: _338  and  _340
REMARK  131  A    between atoms: _340  and  _341
REMARK  132  A    between atoms: _340  and  _343
REMARK  133  A    between atoms: _343  and  _344
REMARK  134  A    between atoms: _344  and  _345
REMARK  135  A    between atoms: _345  and  _346
REMARK  136  A    between atoms: _355  and  _357
REMARK  137  A    between atoms: _357  and  _358
REMARK  138  A    between atoms: _357  and  _360
REMARK  139  A    between atoms: _360  and  _361
REMARK  140  A    between atoms: _366  and  _367
REMARK  141  A    between atoms: _369  and  _371
REMARK  142  A    between atoms: _371  and  _372
REMARK  143  A    between atoms: _371  and  _374
REMARK  144  A    between atoms: _374  and  _375
REMARK  145  A    between atoms: _377  and  _379
REMARK  146  A    between atoms: _379  and  _380
REMARK  147  A    between atoms: _379  and  _382
REMARK  148  A    between atoms: _382  and  _383
REMARK                            x       y       z     vdW  Elec       q    Type
REMARK                         _______ _______ _______ _____ _____    ______ ____
ROOT
ATOM      1  CA  ASN A   1      43.478  98.886 -13.639  0.00  0.00    +0.154 C 
ENDROOT
BRANCH   1   2
ATOM      2  C   ASN A   1      42.084  98.334 -13.984  0.00  0.00    +0.242 C 
ATOM      3  O   ASN A   1      41.451  97.698 -13.138  0.00  0.00    -0.273 OA
ATOM      4  N   PRO A   2      41.624  98.489 -15.234  0.00  0.00    -0.273 N 
ATOM      5  CD  PRO A   2      40.213  98.292 -15.635  0.00  0.00    +0.094 C 
ATOM      6  CG  PRO A   2      40.316  98.029 -17.132  0.00  0.00    +0.024 C 
ATOM      7  CB  PRO A   2      41.829  97.860 -17.454  0.00  0.00    +0.030 C 
ATOM      8  CA  PRO A   2      42.489  98.727 -16.405  0.00  0.00    +0.140 C 
BRANCH   8   9
ATOM      9  C   PRO A   2      42.575 100.141 -16.988  0.00  0.00    +0.227 C 
ATOM     10  O   PRO A   2      43.374 100.334 -17.911  0.00  0.00    -0.286 OA
ENDBRANCH   8   9
ENDBRANCH   1   2
BRANCH   1  11
ATOM     11  N   ASN A   1      43.312  99.999 -12.720  0.00  0.00    -0.238 NA
ATOM     12  H   ASN A   1      42.908  99.816 -11.779  0.00  0.00    +0.142 HD
ENDBRANCH   1  11
BRANCH   1  13
ATOM     13  CB  ASN A   1      44.373  97.840 -12.936  0.00  0.00    +0.111 C 
BRANCH  13  14
ATOM     14  CG  ASN A   1      44.675  96.600 -13.780  0.00  0.00    +0.221 C 
ATOM     15  ND2 ASN A   1      45.591  95.751 -13.267  0.00  0.00    -0.329 N 
ATOM     16 HD21 ASN A   1      46.075  95.984 -12.376  0.00  0.00    +0.145 HD
ATOM     17 HD22 ASN A   1      45.813  94.864 -13.762  0.00  0.00    +0.145 HD
ATOM     18  OD1 ASN A   1      44.072  96.371 -14.834  0.00  0.00    -0.275 OA
ENDBRANCH  13  14
ENDBRANCH   1  13
TORSDOF 5
REMARK  Name = ../refined-set-2016/1tog/1tog_pocket.pdb
REMARK  148 active torsions:
REMARK  status: ('A' for Active; 'I' for Inactive)
REMARK    1  A    between atoms: _1  and  _3
REMARK    2  A    between atoms: _3  and  _4
REMARK    3  A    between atoms: _3  and  _6
REMARK    4  A    between atoms: _6  and  _7
REMARK    5  A    between atoms: _11  and  _12
REMARK    6  A    between atoms: _17  and  _19
REMARK    7  A    between atoms: _19  and  _20
REMARK    8  A    between atoms: _19  and  _22
REMARK    9  A    between atoms: _22  and  _23
REMARK   10  A    between atoms: _26  and  _28
REMARK   11  A    between atoms: _28  and  _29
REMARK   12  A    between atoms: _28  and  _31
REMARK   13  A    between atoms: _31  and  _32
REMARK   14  A    between atoms: _35  and  _37
REMARK   15  A    between atoms: _37  and  _38
REMARK   16  A    between atoms: _40  and  _42
REMARK   17  A    between atoms: _42  and  _43
REMARK   18  A    between atoms: _42  and  _45
REMARK   19  A    between atoms: _45  and  _46
REMARK   20  A    between atoms: _49  and  _51
REMARK   21  A    between atoms: _51  and  _52
REMARK   22  A    between atoms: _51  and  _54
REMARK   23  A    between atoms: _54  and  _55
REMARK   24  A    between atoms: _58  and  _60
REMARK   25  A    between atoms: _60  and  _61
REMARK   26  A    between atoms: _63  and  _65
REMARK   27  A    between atoms: _65  and  _66
REMARK   28  A    between atoms: _65  and  _68
REMARK   29  A    between atoms: _68  and  _69
REMARK   30  A    between atoms: _72  and  _74
REMARK   31  A    between atoms: _74  and  _75
REMARK   32  A    between atoms: _77  and  _79
REMARK   33  A    between atoms: _79  and  _80
REMARK   34  A    between atoms: _79  and  _82
REMARK   35  A    between atoms: _85  and  _87
REMARK   36  A    between atoms: _87  and  _88
REMARK   37  A    between atoms: _90  and  _92
REMARK   38  A    between atoms: _92  and  _93
REMARK   39  A    between atoms: _92  and  _95
REMARK   40  A    between atoms: _95  and  _96
REMARK   41  A    between atoms: _98  and  _100
REMARK   42  A    between atoms: _100  and  _101
REMARK   43  A    between atoms: _103  and  _105
REMARK   44  A    between atoms: _105  and  _106
REMARK   45  A    between atoms: _105  and  _108
REMARK   46  A    between atoms: _108  and  _109
REMARK   47  A    between atoms: _112  and  _114
REMARK   48  A    between atoms: _114  and  _115
REMARK   49  A    between atoms: _114  and  _117
REMARK   50  A    between atoms: _117  and  _118
REMARK   51  A    between atoms: _129  and  _130
REMARK   52  A    between atoms: _135  and  _137
REMARK   53  A    between atoms: _137  and  _138
REMARK   54  A    between atoms: _137  and  _140
REMARK   55  A    between atoms: _140  and  _141
REMARK   56  A    between atoms: _146  and  _148
REMARK   57  A    between atoms: _148  and  _149
REMARK   58  A    between atoms: _148  and  _151
REMARK   59  A    between atoms: _151  and  _152
REMARK   60  A    between atoms: _158  and  _159
REMARK   61  A    between atoms: _164  and  _166
REMARK   62  A    between atoms: _166  and  _167
REMARK   63  A    between atoms: _170  and  _172
REMARK   64  A    between atoms: _172  and  _173
REMARK   65  A    between atoms: _172  and  _175
REMARK   66  A    between atoms: _175  and  _176
REMARK   67  A    between atoms: _181  and  _182
REMARK   68  A    between atoms: _184  and  _186
REMARK   69  A    between atoms: _186  and  _187
REMARK   70  A    between atoms: _186  and  _189
REMARK   71  A    between atoms: _189  and  _190
REMARK   72  A    between atoms: _192  and  _194
REMARK   73  A    between atoms: _194  and  _195
REMARK   74  A    between atoms: _194  and  _197
REMARK   75  A    between atoms: _197  and  _198
REMARK   76  A    between atoms: _205  and  _206
REMARK   77  A    between atoms: _206  and  _222
REMARK   78  A    between atoms: _207  and  _209
REMARK   79  A    between atoms: _209  and  _210
REMARK   80  A    between atoms: _210  and  _211
REMARK   81  A    between atoms: _215  and  _217
REMARK   82  A    between atoms: _217  and  _218
REMARK   83  A    between atoms: _217  and  _225
REMARK   84  A    between atoms: _218  and  _219
REMARK   85  A    between atoms: _219  and  _220
REMARK   86  A    between atoms: _220  and  _221
REMARK   87  A    between atoms: _221  and  _222
REMARK   88  A    between atoms: _227  and  _229
REMARK   89  A    between atoms: _229  and  _230
REMARK   90  A    between atoms: _229  and  _232
REMARK   91  A    between atoms: _232  and  _233
REMARK   92  A    between atoms: _238  and  _239
REMARK   93  A    between atoms: _241  and  _243
REMARK   94  A    between atoms: _243  and  _244
REMARK   95  A    between atoms: _243  and  _246
REMARK   96  A    between atoms: _246  and  _247
REMARK   97  A    between atoms: _247  and  _248
REMARK   98  A    between atoms: _248  and  _249
REMARK   99  A    between atoms: _258  and  _260
REMARK  100  A    between atoms: _260  and  _261
REMARK  101  A    between atoms: _260  and  _263
REMARK  102  A    between atoms: _263  and  _264
REMARK  103  A    between atoms: _264  and  _265
REMARK  104  A    between atoms: _267  and  _269
REMARK  105  A    between atoms: _269  and  _270
REMARK  106  A    between atoms: _269  and  _272
REMARK  107  A    between atoms: _272  and  _273
REMARK  108  A    between atoms: _279  and  _281
REMARK  109  A    between atoms: _281  and  _282
REMARK  110  A    between atoms: _281  and  _284
REMARK  111  A    between atoms: _287  and  _289
REMARK  112  A    between atoms: _289  and  _290
REMARK  113  A    between atoms: _289  and  _292
REMARK  114  A    between atoms: _292  and  _293
REMARK  115  A    between atoms: _293  and  _294
REMARK  116  A    between atoms: _294  and  _295
REMARK  117  A    between atoms: _304  and  _306
REMARK  118  A    between atoms: _306  and  _307
REMARK  119  A    between atoms: _306  and  _309
REMARK  120  A    between atoms: _309  and  _310
REMARK  121  A    between atoms: _315  and  _317
REMARK  122  A    between atoms: _317  and  _318
REMARK  123  A    between atoms: _317  and  _320
REMARK  124  A    between atoms: _320  and  _321
REMARK  125  A    between atoms: _326  and  _327
REMARK  126  A    between atoms: _329  and  _331
REMARK  127  A    between atoms: _331  and  _332
REMARK  128  A    between atoms: _331  and  _334
REMARK  129  A    between atoms: _334  and  _335
REMARK  130  A    between atoms: _338  and  _340
REMARK  131  A    between atoms: _340  and  _341
REMARK  132  A    between atoms: _340  and  _343
REMARK  133  A    between atoms: _343  and  _344
REMARK  134  A    between atoms: _344  and  _345
REMARK  135  A    between atoms: _345  and  _346
REMARK  136  A    between atoms: _355  and  _357
REMARK  137  A    between atoms: _357  and  _358
REMARK  138  A    between atoms: _357  and  _360
REMARK  139  A    between atoms: _360  and  _361
REMARK  140  A    between atoms: _366  and  _367
REMARK  141  A    between atoms: _369  and  _371
REMARK  142  A    between atoms: _371  and  _372
REMARK  143  A    between atoms: _371  and  _374
REMARK  144  A    between atoms: _374  and  _375
REMARK  145  A    between atoms: _377  and  _379
REMARK  146  A    between atoms: _379  and  _380
REMARK  147  A    between atoms: _379  and  _382
REMARK  148  A    between atoms: _382  and  _383
REMARK                            x       y       z     vdW  Elec       q    Type
REMARK                         _______ _______ _______ _____ _____    ______ ____
ROOT
ATOM      1  CA  TYR A   2      51.265 100.550  -8.351  0.00  0.00    +0.141 C 
ENDROOT
BRANCH   1   3
ATOM      2  C   ALA A   1      50.685  98.482  -7.223  0.00  0.00    +0.238 C 
ATOM      3  N   TYR A   2      50.478  99.789  -7.376  0.00  0.00    -0.298 N 
ATOM      4  H   TYR A   2      49.756 100.271  -6.802  0.00  0.00    +0.150 HD
ATOM      5  O   ALA A   1      51.653  97.913  -7.718  0.00  0.00    -0.274 OA
BRANCH   2   6
ATOM      6  CA  ALA A   1      49.656  97.692  -6.407  0.00  0.00    +0.145 C 
ATOM      7  CB  ALA A   1      49.038  96.629  -7.276  0.00  0.00    +0.028 C 
BRANCH   6   8
ATOM      8  N   ALA A   1      48.612  98.531  -5.797  0.00  0.00    -0.238 NA
ATOM      9  H   ALA A   1      47.814  98.851  -6.383  0.00  0.00    +0.142 HD
ENDBRANCH   6   8
ENDBRANCH   2   6
ENDBRANCH   1   3
BRANCH   1  10
ATOM     10  C   TYR A   2      51.896 101.792  -7.787  0.00  0.00    +0.227 C 
ATOM     11  O   TYR A   2      52.193 102.737  -8.539  0.00  0.00    -0.286 OA
ENDBRANCH   1  10
BRANCH   1  12
ATOM     12  CB  TYR A   2      50.402 100.911  -9.562  0.00  0.00    +0.054 C 
BRANCH  12  13
ATOM     13  CG  TYR A   2      50.061  99.712 -10.393  0.00  0.00    -0.020 A 
ATOM     14  CD2 TYR A   2      48.770  99.163 -10.384  0.00  0.00    -0.001 A 
ATOM     15  CE2 TYR A   2      48.463  98.060 -11.146  0.00  0.00    +0.036 A 
ATOM     16  CZ  TYR A   2      49.453  97.483 -11.924  0.00  0.00    +0.134 A 
ATOM     17  CE1 TYR A   2      50.737  98.002 -11.941  0.00  0.00    +0.036 A 
ATOM     18  CD1 TYR A   2      51.032  99.108 -11.179  0.00  0.00    -0.001 A 
BRANCH  16  19
ATOM     19  OH  TYR A   2      49.200  96.380 -12.695  0.00  0.00    -0.506 OA
ATOM     20  HH  TYR A   2      48.902  95.635 -12.115  0.00  0.00    +0.292 HD
ENDBRANCH  16  19
ENDBRANCH  12  13
ENDBRANCH   1  12
TORSDOF 7
REMARK  Name = ../refined-set-2016/1tog/1tog_pocket.pdb
REMARK  148 active torsions:
REMARK  status: ('A' for Active; 'I' for Inactive)
REMARK    1  A    between atoms: _1  and  _3
REMARK    2  A    between atoms: _3  and  _4
REMARK    3  A    between atoms: _3  and  _6
REMARK    4  A    between atoms: _6  and  _7
REMARK    5  A    between atoms: _11  and  _12
REMARK    6  A    between atoms: _17  and  _19
REMARK    7  A    between atoms: _19  and  _20
REMARK    8  A    between atoms: _19  and  _22
REMARK    9  A    between atoms: _22  and  _23
REMARK   10  A    between atoms: _26  and  _28
REMARK   11  A    between atoms: _28  and  _29
REMARK   12  A    between atoms: _28  and  _31
REMARK   13  A    between atoms: _31  and  _32
REMARK   14  A    between atoms: _35  and  _37
REMARK   15  A    between atoms: _37  and  _38
REMARK   16  A    between atoms: _40  and  _42
REMARK   17  A    between atoms: _42  and  _43
REMARK   18  A    between atoms: _42  and  _45
REMARK   19  A    between atoms: _45  and  _46
REMARK   20  A    between atoms: _49  and  _51
REMARK   21  A    between atoms: _51  and  _52
REMARK   22  A    between atoms: _51  and  _54
REMARK   23  A    between atoms: _54  and  _55
REMARK   24  A    between atoms: _58  and  _60
REMARK   25  A    between atoms: _60  and  _61
REMARK   26  A    between atoms: _63  and  _65
REMARK   27  A    between atoms: _65  and  _66
REMARK   28  A    between atoms: _65  and  _68
REMARK   29  A    between atoms: _68  and  _69
REMARK   30  A    between atoms: _72  and  _74
REMARK   31  A    between atoms: _74  and  _75
REMARK   32  A    between atoms: _77  and  _79
REMARK   33  A    between atoms: _79  and  _80
REMARK   34  A    between atoms: _79  and  _82
REMARK   35  A    between atoms: _85  and  _87
REMARK   36  A    between atoms: _87  and  _88
REMARK   37  A    between atoms: _90  and  _92
REMARK   38  A    between atoms: _92  and  _93
REMARK   39  A    between atoms: _92  and  _95
REMARK   40  A    between atoms: _95  and  _96
REMARK   41  A    between atoms: _98  and  _100
REMARK   42  A    between atoms: _100  and  _101
REMARK   43  A    between atoms: _103  and  _105
REMARK   44  A    between atoms: _105  and  _106
REMARK   45  A    between atoms: _105  and  _108
REMARK   46  A    between atoms: _108  and  _109
REMARK   47  A    between atoms: _112  and  _114
REMARK   48  A    between atoms: _114  and  _115
REMARK   49  A    between atoms: _114  and  _117
REMARK   50  A    between atoms: _117  and  _118
REMARK   51  A    between atoms: _129  and  _130
REMARK   52  A    between atoms: _135  and  _137
REMARK   53  A    between atoms: _137  and  _138
REMARK   54  A    between atoms: _137  and  _140
REMARK   55  A    between atoms: _140  and  _141
REMARK   56  A    between atoms: _146  and  _148
REMARK   57  A    between atoms: _148  and  _149
REMARK   58  A    between atoms: _148  and  _151
REMARK   59  A    between atoms: _151  and  _152
REMARK   60  A    between atoms: _158  and  _159
REMARK   61  A    between atoms: _164  and  _166
REMARK   62  A    between atoms: _166  and  _167
REMARK   63  A    between atoms: _170  and  _172
REMARK   64  A    between atoms: _172  and  _173
REMARK   65  A    between atoms: _172  and  _175
REMARK   66  A    between atoms: _175  and  _176
REMARK   67  A    between atoms: _181  and  _182
REMARK   68  A    between atoms: _184  and  _186
REMARK   69  A    between atoms: _186  and  _187
REMARK   70  A    between atoms: _186  and  _189
REMARK   71  A    between atoms: _189  and  _190
REMARK   72  A    between atoms: _192  and  _194
REMARK   73  A    between atoms: _194  and  _195
REMARK   74  A    between atoms: _194  and  _197
REMARK   75  A    between atoms: _197  and  _198
REMARK   76  A    between atoms: _205  and  _206
REMARK   77  A    between atoms: _206  and  _222
REMARK   78  A    between atoms: _207  and  _209
REMARK   79  A    between atoms: _209  and  _210
REMARK   80  A    between atoms: _210  and  _211
REMARK   81  A    between atoms: _215  and  _217
REMARK   82  A    between atoms: _217  and  _218
REMARK   83  A    between atoms: _217  and  _225
REMARK   84  A    between atoms: _218  and  _219
REMARK   85  A    between atoms: _219  and  _220
REMARK   86  A    between atoms: _220  and  _221
REMARK   87  A    between atoms: _221  and  _222
REMARK   88  A    between atoms: _227  and  _229
REMARK   89  A    between atoms: _229  and  _230
REMARK   90  A    between atoms: _229  and  _232
REMARK   91  A    between atoms: _232  and  _233
REMARK   92  A    between atoms: _238  and  _239
REMARK   93  A    between atoms: _241  and  _243
REMARK   94  A    between atoms: _243  and  _244
REMARK   95  A    between atoms: _243  and  _246
REMARK   96  A    between atoms: _246  and  _247
REMARK   97  A    between atoms: _247  and  _248
REMARK   98  A    between atoms: _248  and  _249
REMARK   99  A    between atoms: _258  and  _260
REMARK  100  A    between atoms: _260  and  _261
REMARK  101  A    between atoms: _260  and  _263
REMARK  102  A    between atoms: _263  and  _264
REMARK  103  A    between atoms: _264  and  _265
REMARK  104  A    between atoms: _267  and  _269
REMARK  105  A    between atoms: _269  and  _270
REMARK  106  A    between atoms: _269  and  _272
REMARK  107  A    between atoms: _272  and  _273
REMARK  108  A    between atoms: _279  and  _281
REMARK  109  A    between atoms: _281  and  _282
REMARK  110  A    between atoms: _281  and  _284
REMARK  111  A    between atoms: _287  and  _289
REMARK  112  A    between atoms: _289  and  _290
REMARK  113  A    between atoms: _289  and  _292
REMARK  114  A    between atoms: _292  and  _293
REMARK  115  A    between atoms: _293  and  _294
REMARK  116  A    between atoms: _294  and  _295
REMARK  117  A    between atoms: _304  and  _306
REMARK  118  A    between atoms: _306  and  _307
REMARK  119  A    between atoms: _306  and  _309
REMARK  120  A    between atoms: _309  and  _310
REMARK  121  A    between atoms: _315  and  _317
REMARK  122  A    between atoms: _317  and  _318
REMARK  123  A    between atoms: _317  and  _320
REMARK  124  A    between atoms: _320  and  _321
REMARK  125  A    between atoms: _326  and  _327
REMARK  126  A    between atoms: _329  and  _331
REMARK  127  A    between atoms: _331  and  _332
REMARK  128  A    between atoms: _331  and  _334
REMARK  129  A    between atoms: _334  and  _335
REMARK  130  A    between atoms: _338  and  _340
REMARK  131  A    between atoms: _340  and  _341
REMARK  132  A    between atoms: _340  and  _343
REMARK  133  A    between atoms: _343  and  _344
REMARK  134  A    between atoms: _344  and  _345
REMARK  135  A    between atoms: _345  and  _346
REMARK  136  A    between atoms: _355  and  _357
REMARK  137  A    between atoms: _357  and  _358
REMARK  138  A    between atoms: _357  and  _360
REMARK  139  A    between atoms: _360  and  _361
REMARK  140  A    between atoms: _366  and  _367
REMARK  141  A    between atoms: _369  and  _371
REMARK  142  A    between atoms: _371  and  _372
REMARK  143  A    between atoms: _371  and  _374
REMARK  144  A    between atoms: _374  and  _375
REMARK  145  A    between atoms: _377  and  _379
REMARK  146  A    between atoms: _379  and  _380
REMARK  147  A    between atoms: _379  and  _382
REMARK  148  A    between atoms: _382  and  _383
REMARK                            x       y       z     vdW  Elec       q    Type
REMARK                         _______ _______ _______ _____ _____    ______ ____
ROOT
ATOM      1  CA  SER A   1      51.690  94.963  -3.438  0.00  0.00    +0.163 C 
ENDROOT
BRANCH   1   2
ATOM      2  N   SER A   1      50.851  95.902  -2.755  0.00  0.00    -0.237 NA
ATOM      3  H   SER A   1      50.843  96.892  -3.075  0.00  0.00    +0.142 HD
ENDBRANCH   1   2
BRANCH   1   4
ATOM      4  CB  SER A   1      53.027  95.596  -3.753  0.00  0.00    +0.227 C 
ATOM      5  OG  SER A   1      53.121  96.828  -3.997  0.00  0.00    -0.287 OA
ENDBRANCH   1   4
BRANCH   1   6
ATOM      6  C   SER A   1      51.035  94.464  -4.721  0.00  0.00    +0.162 C 
BRANCH   6   7
ATOM      7  O   SER A   1      51.941  93.608  -5.448  0.00  0.00    -0.380 OA
ATOM      8  H   SER A   1      51.502  93.293  -6.277  0.00  0.00    +0.211 HD
ENDBRANCH   6   7
ENDBRANCH   1   6
TORSDOF 4
REMARK  Name = ../refined-set-2016/1tog/1tog_pocket.pdb
REMARK  148 active torsions:
REMARK  status: ('A' for Active; 'I' for Inactive)
REMARK    1  A    between atoms: _1  and  _3
REMARK    2  A    between atoms: _3  and  _4
REMARK    3  A    between atoms: _3  and  _6
REMARK    4  A    between atoms: _6  and  _7
REMARK    5  A    between atoms: _11  and  _12
REMARK    6  A    between atoms: _17  and  _19
REMARK    7  A    between atoms: _19  and  _20
REMARK    8  A    between atoms: _19  and  _22
REMARK    9  A    between atoms: _22  and  _23
REMARK   10  A    between atoms: _26  and  _28
REMARK   11  A    between atoms: _28  and  _29
REMARK   12  A    between atoms: _28  and  _31
REMARK   13  A    between atoms: _31  and  _32
REMARK   14  A    between atoms: _35  and  _37
REMARK   15  A    between atoms: _37  and  _38
REMARK   16  A    between atoms: _40  and  _42
REMARK   17  A    between atoms: _42  and  _43
REMARK   18  A    between atoms: _42  and  _45
REMARK   19  A    between atoms: _45  and  _46
REMARK   20  A    between atoms: _49  and  _51
REMARK   21  A    between atoms: _51  and  _52
REMARK   22  A    between atoms: _51  and  _54
REMARK   23  A    between atoms: _54  and  _55
REMARK   24  A    between atoms: _58  and  _60
REMARK   25  A    between atoms: _60  and  _61
REMARK   26  A    between atoms: _63  and  _65
REMARK   27  A    between atoms: _65  and  _66
REMARK   28  A    between atoms: _65  and  _68
REMARK   29  A    between atoms: _68  and  _69
REMARK   30  A    between atoms: _72  and  _74
REMARK   31  A    between atoms: _74  and  _75
REMARK   32  A    between atoms: _77  and  _79
REMARK   33  A    between atoms: _79  and  _80
REMARK   34  A    between atoms: _79  and  _82
REMARK   35  A    between atoms: _85  and  _87
REMARK   36  A    between atoms: _87  and  _88
REMARK   37  A    between atoms: _90  and  _92
REMARK   38  A    between atoms: _92  and  _93
REMARK   39  A    between atoms: _92  and  _95
REMARK   40  A    between atoms: _95  and  _96
REMARK   41  A    between atoms: _98  and  _100
REMARK   42  A    between atoms: _100  and  _101
REMARK   43  A    between atoms: _103  and  _105
REMARK   44  A    between atoms: _105  and  _106
REMARK   45  A    between atoms: _105  and  _108
REMARK   46  A    between atoms: _108  and  _109
REMARK   47  A    between atoms: _112  and  _114
REMARK   48  A    between atoms: _114  and  _115
REMARK   49  A    between atoms: _114  and  _117
REMARK   50  A    between atoms: _117  and  _118
REMARK   51  A    between atoms: _129  and  _130
REMARK   52  A    between atoms: _135  and  _137
REMARK   53  A    between atoms: _137  and  _138
REMARK   54  A    between atoms: _137  and  _140
REMARK   55  A    between atoms: _140  and  _141
REMARK   56  A    between atoms: _146  and  _148
REMARK   57  A    between atoms: _148  and  _149
REMARK   58  A    between atoms: _148  and  _151
REMARK   59  A    between atoms: _151  and  _152
REMARK   60  A    between atoms: _158  and  _159
REMARK   61  A    between atoms: _164  and  _166
REMARK   62  A    between atoms: _166  and  _167
REMARK   63  A    between atoms: _170  and  _172
REMARK   64  A    between atoms: _172  and  _173
REMARK   65  A    between atoms: _172  and  _175
REMARK   66  A    between atoms: _175  and  _176
REMARK   67  A    between atoms: _181  and  _182
REMARK   68  A    between atoms: _184  and  _186
REMARK   69  A    between atoms: _186  and  _187
REMARK   70  A    between atoms: _186  and  _189
REMARK   71  A    between atoms: _189  and  _190
REMARK   72  A    between atoms: _192  and  _194
REMARK   73  A    between atoms: _194  and  _195
REMARK   74  A    between atoms: _194  and  _197
REMARK   75  A    between atoms: _197  and  _198
REMARK   76  A    between atoms: _205  and  _206
REMARK   77  A    between atoms: _206  and  _222
REMARK   78  A    between atoms: _207  and  _209
REMARK   79  A    between atoms: _209  and  _210
REMARK   80  A    between atoms: _210  and  _211
REMARK   81  A    between atoms: _215  and  _217
REMARK   82  A    between atoms: _217  and  _218
REMARK   83  A    between atoms: _217  and  _225
REMARK   84  A    between atoms: _218  and  _219
REMARK   85  A    between atoms: _219  and  _220
REMARK   86  A    between atoms: _220  and  _221
REMARK   87  A    between atoms: _221  and  _222
REMARK   88  A    between atoms: _227  and  _229
REMARK   89  A    between atoms: _229  and  _230
REMARK   90  A    between atoms: _229  and  _232
REMARK   91  A    between atoms: _232  and  _233
REMARK   92  A    between atoms: _238  and  _239
REMARK   93  A    between atoms: _241  and  _243
REMARK   94  A    between atoms: _243  and  _244
REMARK   95  A    between atoms: _243  and  _246
REMARK   96  A    between atoms: _246  and  _247
REMARK   97  A    between atoms: _247  and  _248
REMARK   98  A    between atoms: _248  and  _249
REMARK   99  A    between atoms: _258  and  _260
REMARK  100  A    between atoms: _260  and  _261
REMARK  101  A    between atoms: _260  and  _263
REMARK  102  A    between atoms: _263  and  _264
REMARK  103  A    between atoms: _264  and  _265
REMARK  104  A    between atoms: _267  and  _269
REMARK  105  A    between atoms: _269  and  _270
REMARK  106  A    between atoms: _269  and  _272
REMARK  107  A    between atoms: _272  and  _273
REMARK  108  A    between atoms: _279  and  _281
REMARK  109  A    between atoms: _281  and  _282
REMARK  110  A    between atoms: _281  and  _284
REMARK  111  A    between atoms: _287  and  _289
REMARK  112  A    between atoms: _289  and  _290
REMARK  113  A    between atoms: _289  and  _292
REMARK  114  A    between atoms: _292  and  _293
REMARK  115  A    between atoms: _293  and  _294
REMARK  116  A    between atoms: _294  and  _295
REMARK  117  A    between atoms: _304  and  _306
REMARK  118  A    between atoms: _306  and  _307
REMARK  119  A    between atoms: _306  and  _309
REMARK  120  A    between atoms: _309  and  _310
REMARK  121  A    between atoms: _315  and  _317
REMARK  122  A    between atoms: _317  and  _318
REMARK  123  A    between atoms: _317  and  _320
REMARK  124  A    between atoms: _320  and  _321
REMARK  125  A    between atoms: _326  and  _327
REMARK  126  A    between atoms: _329  and  _331
REMARK  127  A    between atoms: _331  and  _332
REMARK  128  A    between atoms: _331  and  _334
REMARK  129  A    between atoms: _334  and  _335
REMARK  130  A    between atoms: _338  and  _340
REMARK  131  A    between atoms: _340  and  _341
REMARK  132  A    between atoms: _340  and  _343
REMARK  133  A    between atoms: _343  and  _344
REMARK  134  A    between atoms: _344  and  _345
REMARK  135  A    between atoms: _345  and  _346
REMARK  136  A    between atoms: _355  and  _357
REMARK  137  A    between atoms: _357  and  _358
REMARK  138  A    between atoms: _357  and  _360
REMARK  139  A    between atoms: _360  and  _361
REMARK  140  A    between atoms: _366  and  _367
REMARK  141  A    between atoms: _369  and  _371
REMARK  142  A    between atoms: _371  and  _372
REMARK  143  A    between atoms: _371  and  _374
REMARK  144  A    between atoms: _374  and  _375
REMARK  145  A    between atoms: _377  and  _379
REMARK  146  A    between atoms: _379  and  _380
REMARK  147  A    between atoms: _379  and  _382
REMARK  148  A    between atoms: _382  and  _383
REMARK                            x       y       z     vdW  Elec       q    Type
REMARK                         _______ _______ _______ _____ _____    ______ ____
ROOT
ATOM      1  N   UNK A   2      49.645  94.367 -10.509  0.00  0.00    +0.387 N 
ATOM      2  H   UNK A   2      49.558  95.309 -10.077  0.00  0.00    -0.084 HD
ATOM      3  H   UNK A   2      49.090  94.338 -11.388  0.00  0.00    -0.084 HD
ENDROOT
BRANCH   1   4
ATOM      4  C   UNK A   2      49.174  93.460  -9.669  0.00  0.00    -0.051 C 
BRANCH   4   5
ATOM      5  C   UNK A   2      47.825  93.821  -9.085  0.00  0.00    -0.007 C 
ATOM      6  C   UNK A   2      47.488  93.274  -7.841  0.00  0.00    +0.023 C 
ATOM      7  C   UNK A   2      46.264  93.583  -7.237  0.00  0.00    +0.091 C 
ATOM      8  N   UNK A   2      45.359  94.389  -7.888  0.00  0.00    -0.263 NA
ATOM      9  C   UNK A   2      45.669  94.927  -9.134  0.00  0.00    +0.164 C 
ATOM     10  C   UNK A   2      44.648  95.807  -9.793  0.00  0.00    +0.035 C 
ATOM     11  C   UNK A   2      46.895  94.651  -9.749  0.00  0.00    +0.189 C 
ATOM     12  O   UNK A   2      47.139  95.119 -10.874  0.00  0.00    -0.290 OA
BRANCH   6  13
ATOM     13  C   UNK A   2      48.451  92.411  -7.060  0.00  0.00    +0.181 C 
BRANCH  13  14
ATOM     14  O   UNK A   2      49.428  91.538  -7.667  0.00  0.00    -0.265 OA
BRANCH  14  15
ATOM     15  P   UNK A   2      50.311  90.567  -6.727  0.00  0.00    +0.533 P 
ATOM     16  O   UNK A   2      51.287  89.994  -7.674  0.00  0.00    -0.115 OA
ATOM     17  O   UNK A   2      49.350  89.565  -6.220  0.00  0.00    -0.115 OA
ATOM     18  O   UNK A   2      50.865  91.432  -5.656  0.00  0.00    -0.222 OA
ENDBRANCH  14  15
ENDBRANCH  13  14
ENDBRANCH   6  13
ENDBRANCH   4   5
ENDBRANCH   1   4
BRANCH   1  19
ATOM     19  C   UNK A   2      51.106  94.101 -10.833  0.00  0.00    -0.081 C 
BRANCH  19  20
ATOM     20  C   UNK A   2      52.069  95.040 -10.081  0.00  0.00    -0.023 C 
BRANCH  20  21
ATOM     21  C   UNK A   2      53.264  95.459 -10.941  0.00  0.00    -0.000 C 
BRANCH  21  22
ATOM     22  C   UNK A   2      54.222  96.447 -10.216  0.00  0.00    +0.028 C 
BRANCH  22  23
ATOM     23  C   UNK A   2      55.502  95.760  -9.716  0.00  0.00    +0.137 C 
BRANCH  23  25
ATOM     24  C   SER A   1      55.825  93.736  -8.354  0.00  0.00    +0.241 C 
ATOM     25  N   UNK A   2      55.195  94.886  -8.589  0.00  0.00    -0.298 N 
ATOM     26  H   UNK A   2      54.443  95.177  -7.933  0.00  0.00    +0.150 HD
ATOM     27  O   SER A   1      56.802  93.342  -8.982  0.00  0.00    -0.274 OA
BRANCH  24  28
ATOM     28  CA  SER A   1      55.232  92.891  -7.253  0.00  0.00    +0.174 C 
BRANCH  28  29
ATOM     29  N   SER A   1      54.898  93.695  -6.078  0.00  0.00    -0.236 NA
ATOM     30  H   SER A   1      53.914  93.721  -5.742  0.00  0.00    +0.142 HD
ENDBRANCH  28  29
BRANCH  28  31
ATOM     31  CB  SER A   1      53.996  92.166  -7.780  0.00  0.00    +0.163 C 
BRANCH  31  32
ATOM     32  OG  SER A   1      53.762  91.025  -6.990  0.00  0.00    -0.380 OA
ATOM     33  H   SER A   1      52.961  90.550  -7.327  0.00  0.00    +0.211 HD
ENDBRANCH  31  32
ENDBRANCH  28  31
ENDBRANCH  24  28
ENDBRANCH  23  25
BRANCH  23  34
ATOM     34  C   UNK A   2      56.604  96.778  -9.377  0.00  0.00    +0.227 C 
ATOM     35  O   UNK A   2      57.579  96.875 -10.129  0.00  0.00    -0.286 OA
ENDBRANCH  23  34
ENDBRANCH  22  23
ENDBRANCH  21  22
ENDBRANCH  20  21
ENDBRANCH  19  20
ENDBRANCH   1  19
TORSDOF 16
REMARK  Name = ../refined-set-2016/1tog/1tog_pocket.pdb
REMARK  148 active torsions:
REMARK  status: ('A' for Active; 'I' for Inactive)
REMARK    1  A    between atoms: _1  and  _3
REMARK    2  A    between atoms: _3  and  _4
REMARK    3  A    between atoms: _3  and  _6
REMARK    4  A    between atoms: _6  and  _7
REMARK    5  A    between atoms: _11  and  _12
REMARK    6  A    between atoms: _17  and  _19
REMARK    7  A    between atoms: _19  and  _20
REMARK    8  A    between atoms: _19  and  _22
REMARK    9  A    between atoms: _22  and  _23
REMARK   10  A    between atoms: _26  and  _28
REMARK   11  A    between atoms: _28  and  _29
REMARK   12  A    between atoms: _28  and  _31
REMARK   13  A    between atoms: _31  and  _32
REMARK   14  A    between atoms: _35  and  _37
REMARK   15  A    between atoms: _37  and  _38
REMARK   16  A    between atoms: _40  and  _42
REMARK   17  A    between atoms: _42  and  _43
REMARK   18  A    between atoms: _42  and  _45
REMARK   19  A    between atoms: _45  and  _46
REMARK   20  A    between atoms: _49  and  _51
REMARK   21  A    between atoms: _51  and  _52
REMARK   22  A    between atoms: _51  and  _54
REMARK   23  A    between atoms: _54  and  _55
REMARK   24  A    between atoms: _58  and  _60
REMARK   25  A    between atoms: _60  and  _61
REMARK   26  A    between atoms: _63  and  _65
REMARK   27  A    between atoms: _65  and  _66
REMARK   28  A    between atoms: _65  and  _68
REMARK   29  A    between atoms: _68  and  _69
REMARK   30  A    between atoms: _72  and  _74
REMARK   31  A    between atoms: _74  and  _75
REMARK   32  A    between atoms: _77  and  _79
REMARK   33  A    between atoms: _79  and  _80
REMARK   34  A    between atoms: _79  and  _82
REMARK   35  A    between atoms: _85  and  _87
REMARK   36  A    between atoms: _87  and  _88
REMARK   37  A    between atoms: _90  and  _92
REMARK   38  A    between atoms: _92  and  _93
REMARK   39  A    between atoms: _92  and  _95
REMARK   40  A    between atoms: _95  and  _96
REMARK   41  A    between atoms: _98  and  _100
REMARK   42  A    between atoms: _100  and  _101
REMARK   43  A    between atoms: _103  and  _105
REMARK   44  A    between atoms: _105  and  _106
REMARK   45  A    between atoms: _105  and  _108
REMARK   46  A    between atoms: _108  and  _109
REMARK   47  A    between atoms: _112  and  _114
REMARK   48  A    between atoms: _114  and  _115
REMARK   49  A    between atoms: _114  and  _117
REMARK   50  A    between atoms: _117  and  _118
REMARK   51  A    between atoms: _129  and  _130
REMARK   52  A    between atoms: _135  and  _137
REMARK   53  A    between atoms: _137  and  _138
REMARK   54  A    between atoms: _137  and  _140
REMARK   55  A    between atoms: _140  and  _141
REMARK   56  A    between atoms: _146  and  _148
REMARK   57  A    between atoms: _148  and  _149
REMARK   58  A    between atoms: _148  and  _151
REMARK   59  A    between atoms: _151  and  _152
REMARK   60  A    between atoms: _158  and  _159
REMARK   61  A    between atoms: _164  and  _166
REMARK   62  A    between atoms: _166  and  _167
REMARK   63  A    between atoms: _170  and  _172
REMARK   64  A    between atoms: _172  and  _173
REMARK   65  A    between atoms: _172  and  _175
REMARK   66  A    between atoms: _175  and  _176
REMARK   67  A    between atoms: _181  and  _182
REMARK   68  A    between atoms: _184  and  _186
REMARK   69  A    between atoms: _186  and  _187
REMARK   70  A    between atoms: _186  and  _189
REMARK   71  A    between atoms: _189  and  _190
REMARK   72  A    between atoms: _192  and  _194
REMARK   73  A    between atoms: _194  and  _195
REMARK   74  A    between atoms: _194  and  _197
REMARK   75  A    between atoms: _197  and  _198
REMARK   76  A    between atoms: _205  and  _206
REMARK   77  A    between atoms: _206  and  _222
REMARK   78  A    between atoms: _207  and  _209
REMARK   79  A    between atoms: _209  and  _210
REMARK   80  A    between atoms: _210  and  _211
REMARK   81  A    between atoms: _215  and  _217
REMARK   82  A    between atoms: _217  and  _218
REMARK   83  A    between atoms: _217  and  _225
REMARK   84  A    between atoms: _218  and  _219
REMARK   85  A    between atoms: _219  and  _220
REMARK   86  A    between atoms: _220  and  _221
REMARK   87  A    between atoms: _221  and  _222
REMARK   88  A    between atoms: _227  and  _229
REMARK   89  A    between atoms: _229  and  _230
REMARK   90  A    between atoms: _229  and  _232
REMARK   91  A    between atoms: _232  and  _233
REMARK   92  A    between atoms: _238  and  _239
REMARK   93  A    between atoms: _241  and  _243
REMARK   94  A    between atoms: _243  and  _244
REMARK   95  A    between atoms: _243  and  _246
REMARK   96  A    between atoms: _246  and  _247
REMARK   97  A    between atoms: _247  and  _248
REMARK   98  A    between atoms: _248  and  _249
REMARK   99  A    between atoms: _258  and  _260
REMARK  100  A    between atoms: _260  and  _261
REMARK  101  A    between atoms: _260  and  _263
REMARK  102  A    between atoms: _263  and  _264
REMARK  103  A    between atoms: _264  and  _265
REMARK  104  A    between atoms: _267  and  _269
REMARK  105  A    between atoms: _269  and  _270
REMARK  106  A    between atoms: _269  and  _272
REMARK  107  A    between atoms: _272  and  _273
REMARK  108  A    between atoms: _279  and  _281
REMARK  109  A    between atoms: _281  and  _282
REMARK  110  A    between atoms: _281  and  _284
REMARK  111  A    between atoms: _287  and  _289
REMARK  112  A    between atoms: _289  and  _290
REMARK  113  A    between atoms: _289  and  _292
REMARK  114  A    between atoms: _292  and  _293
REMARK  115  A    between atoms: _293  and  _294
REMARK  116  A    between atoms: _294  and  _295
REMARK  117  A    between atoms: _304  and  _306
REMARK  118  A    between atoms: _306  and  _307
REMARK  119  A    between atoms: _306  and  _309
REMARK  120  A    between atoms: _309  and  _310
REMARK  121  A    between atoms: _315  and  _317
REMARK  122  A    between atoms: _317  and  _318
REMARK  123  A    between atoms: _317  and  _320
REMARK  124  A    between atoms: _320  and  _321
REMARK  125  A    between atoms: _326  and  _327
REMARK  126  A    between atoms: _329  and  _331
REMARK  127  A    between atoms: _331  and  _332
REMARK  128  A    between atoms: _331  and  _334
REMARK  129  A    between atoms: _334  and  _335
REMARK  130  A    between atoms: _338  and  _340
REMARK  131  A    between atoms: _340  and  _341
REMARK  132  A    between atoms: _340  and  _343
REMARK  133  A    between atoms: _343  and  _344
REMARK  134  A    between atoms: _344  and  _345
REMARK  135  A    between atoms: _345  and  _346
REMARK  136  A    between atoms: _355  and  _357
REMARK  137  A    between atoms: _357  and  _358
REMARK  138  A    between atoms: _357  and  _360
REMARK  139  A    between atoms: _360  and  _361
REMARK  140  A    between atoms: _366  and  _367
REMARK  141  A    between atoms: _369  and  _371
REMARK  142  A    between atoms: _371  and  _372
REMARK  143  A    between atoms: _371  and  _374
REMARK  144  A    between atoms: _374  and  _375
REMARK  145  A    between atoms: _377  and  _379
REMARK  146  A    between atoms: _379  and  _380
REMARK  147  A    between atoms: _379  and  _382
REMARK  148  A    between atoms: _382  and  _383
REMARK                            x       y       z     vdW  Elec       q    Type
REMARK                         _______ _______ _______ _____ _____    ______ ____
ROOT
ATOM      1  CG  TYR A   1      56.221  90.446 -11.371  0.00  0.00    -0.020 A 
ATOM      2  CD2 TYR A   1      55.291  91.463 -11.594  0.00  0.00    -0.001 A 
ATOM      3  CE2 TYR A   1      55.633  92.605 -12.309  0.00  0.00    +0.036 A 
ATOM      4  CZ  TYR A   1      56.930  92.741 -12.813  0.00  0.00    +0.134 A 
ATOM      5  CE1 TYR A   1      57.874  91.745 -12.607  0.00  0.00    +0.036 A 
ATOM      6  CD1 TYR A   1      57.514  90.602 -11.883  0.00  0.00    -0.001 A 
ENDROOT
BRANCH   4   7
ATOM      7  OH  TYR A   1      57.238  93.874 -13.515  0.00  0.00    -0.506 OA
ATOM      8  HH  TYR A   1      56.443  94.462 -13.556  0.00  0.00    +0.292 HD
ENDBRANCH   4   7
BRANCH   1   9
ATOM      9  CB  TYR A   1      55.833  89.208 -10.580  0.00  0.00    +0.051 C 
BRANCH   9  10
ATOM     10  CA  TYR A   1      56.171  89.299  -9.090  0.00  0.00    +0.137 C 
BRANCH  10  11
ATOM     11  N   TYR A   1      57.457  89.988  -8.906  0.00  0.00    -0.239 NA
ATOM     12  H   TYR A   1      57.839  90.528  -9.709  0.00  0.00    +0.142 HD
ENDBRANCH  10  11
BRANCH  10  13
ATOM     13  C   TYR A   1      56.095  87.918  -8.440  0.00  0.00    +0.224 C 
ATOM     14  O   TYR A   1      55.192  87.652  -7.636  0.00  0.00    -0.287 OA
ENDBRANCH  10  13
ENDBRANCH   9  10
ENDBRANCH   1   9
TORSDOF 5
REMARK  Name = ../refined-set-2016/1tog/1tog_pocket.pdb
REMARK  148 active torsions:
REMARK  status: ('A' for Active; 'I' for Inactive)
REMARK    1  A    between atoms: _1  and  _3
REMARK    2  A    between atoms: _3  and  _4
REMARK    3  A    between atoms: _3  and  _6
REMARK    4  A    between atoms: _6  and  _7
REMARK    5  A    between atoms: _11  and  _12
REMARK    6  A    between atoms: _17  and  _19
REMARK    7  A    between atoms: _19  and  _20
REMARK    8  A    between atoms: _19  and  _22
REMARK    9  A    between atoms: _22  and  _23
REMARK   10  A    between atoms: _26  and  _28
REMARK   11  A    between atoms: _28  and  _29
REMARK   12  A    between atoms: _28  and  _31
REMARK   13  A    between atoms: _31  and  _32
REMARK   14  A    between atoms: _35  and  _37
REMARK   15  A    between atoms: _37  and  _38
REMARK   16  A    between atoms: _40  and  _42
REMARK   17  A    between atoms: _42  and  _43
REMARK   18  A    between atoms: _42  and  _45
REMARK   19  A    between atoms: _45  and  _46
REMARK   20  A    between atoms: _49  and  _51
REMARK   21  A    between atoms: _51  and  _52
REMARK   22  A    between atoms: _51  and  _54
REMARK   23  A    between atoms: _54  and  _55
REMARK   24  A    between atoms: _58  and  _60
REMARK   25  A    between atoms: _60  and  _61
REMARK   26  A    between atoms: _63  and  _65
REMARK   27  A    between atoms: _65  and  _66
REMARK   28  A    between atoms: _65  and  _68
REMARK   29  A    between atoms: _68  and  _69
REMARK   30  A    between atoms: _72  and  _74
REMARK   31  A    between atoms: _74  and  _75
REMARK   32  A    between atoms: _77  and  _79
REMARK   33  A    between atoms: _79  and  _80
REMARK   34  A    between atoms: _79  and  _82
REMARK   35  A    between atoms: _85  and  _87
REMARK   36  A    between atoms: _87  and  _88
REMARK   37  A    between atoms: _90  and  _92
REMARK   38  A    between atoms: _92  and  _93
REMARK   39  A    between atoms: _92  and  _95
REMARK   40  A    between atoms: _95  and  _96
REMARK   41  A    between atoms: _98  and  _100
REMARK   42  A    between atoms: _100  and  _101
REMARK   43  A    between atoms: _103  and  _105
REMARK   44  A    between atoms: _105  and  _106
REMARK   45  A    between atoms: _105  and  _108
REMARK   46  A    between atoms: _108  and  _109
REMARK   47  A    between atoms: _112  and  _114
REMARK   48  A    between atoms: _114  and  _115
REMARK   49  A    between atoms: _114  and  _117
REMARK   50  A    between atoms: _117  and  _118
REMARK   51  A    between atoms: _129  and  _130
REMARK   52  A    between atoms: _135  and  _137
REMARK   53  A    between atoms: _137  and  _138
REMARK   54  A    between atoms: _137  and  _140
REMARK   55  A    between atoms: _140  and  _141
REMARK   56  A    between atoms: _146  and  _148
REMARK   57  A    between atoms: _148  and  _149
REMARK   58  A    between atoms: _148  and  _151
REMARK   59  A    between atoms: _151  and  _152
REMARK   60  A    between atoms: _158  and  _159
REMARK   61  A    between atoms: _164  and  _166
REMARK   62  A    between atoms: _166  and  _167
REMARK   63  A    between atoms: _170  and  _172
REMARK   64  A    between atoms: _172  and  _173
REMARK   65  A    between atoms: _172  and  _175
REMARK   66  A    between atoms: _175  and  _176
REMARK   67  A    between atoms: _181  and  _182
REMARK   68  A    between atoms: _184  and  _186
REMARK   69  A    between atoms: _186  and  _187
REMARK   70  A    between atoms: _186  and  _189
REMARK   71  A    between atoms: _189  and  _190
REMARK   72  A    between atoms: _192  and  _194
REMARK   73  A    between atoms: _194  and  _195
REMARK   74  A    between atoms: _194  and  _197
REMARK   75  A    between atoms: _197  and  _198
REMARK   76  A    between atoms: _205  and  _206
REMARK   77  A    between atoms: _206  and  _222
REMARK   78  A    between atoms: _207  and  _209
REMARK   79  A    between atoms: _209  and  _210
REMARK   80  A    between atoms: _210  and  _211
REMARK   81  A    between atoms: _215  and  _217
REMARK   82  A    between atoms: _217  and  _218
REMARK   83  A    between atoms: _217  and  _225
REMARK   84  A    between atoms: _218  and  _219
REMARK   85  A    between atoms: _219  and  _220
REMARK   86  A    between atoms: _220  and  _221
REMARK   87  A    between atoms: _221  and  _222
REMARK   88  A    between atoms: _227  and  _229
REMARK   89  A    between atoms: _229  and  _230
REMARK   90  A    between atoms: _229  and  _232
REMARK   91  A    between atoms: _232  and  _233
REMARK   92  A    between atoms: _238  and  _239
REMARK   93  A    between atoms: _241  and  _243
REMARK   94  A    between atoms: _243  and  _244
REMARK   95  A    between atoms: _243  and  _246
REMARK   96  A    between atoms: _246  and  _247
REMARK   97  A    between atoms: _247  and  _248
REMARK   98  A    between atoms: _248  and  _249
REMARK   99  A    between atoms: _258  and  _260
REMARK  100  A    between atoms: _260  and  _261
REMARK  101  A    between atoms: _260  and  _263
REMARK  102  A    between atoms: _263  and  _264
REMARK  103  A    between atoms: _264  and  _265
REMARK  104  A    between atoms: _267  and  _269
REMARK  105  A    between atoms: _269  and  _270
REMARK  106  A    between atoms: _269  and  _272
REMARK  107  A    between atoms: _272  and  _273
REMARK  108  A    between atoms: _279  and  _281
REMARK  109  A    between atoms: _281  and  _282
REMARK  110  A    between atoms: _281  and  _284
REMARK  111  A    between atoms: _287  and  _289
REMARK  112  A    between atoms: _289  and  _290
REMARK  113  A    between atoms: _289  and  _292
REMARK  114  A    between atoms: _292  and  _293
REMARK  115  A    between atoms: _293  and  _294
REMARK  116  A    between atoms: _294  and  _295
REMARK  117  A    between atoms: _304  and  _306
REMARK  118  A    between atoms: _306  and  _307
REMARK  119  A    between atoms: _306  and  _309
REMARK  120  A    between atoms: _309  and  _310
REMARK  121  A    between atoms: _315  and  _317
REMARK  122  A    between atoms: _317  and  _318
REMARK  123  A    between atoms: _317  and  _320
REMARK  124  A    between atoms: _320  and  _321
REMARK  125  A    between atoms: _326  and  _327
REMARK  126  A    between atoms: _329  and  _331
REMARK  127  A    between atoms: _331  and  _332
REMARK  128  A    between atoms: _331  and  _334
REMARK  129  A    between atoms: _334  and  _335
REMARK  130  A    between atoms: _338  and  _340
REMARK  131  A    between atoms: _340  and  _341
REMARK  132  A    between atoms: _340  and  _343
REMARK  133  A    between atoms: _343  and  _344
REMARK  134  A    between atoms: _344  and  _345
REMARK  135  A    between atoms: _345  and  _346
REMARK  136  A    between atoms: _355  and  _357
REMARK  137  A    between atoms: _357  and  _358
REMARK  138  A    between atoms: _357  and  _360
REMARK  139  A    between atoms: _360  and  _361
REMARK  140  A    between atoms: _366  and  _367
REMARK  141  A    between atoms: _369  and  _371
REMARK  142  A    between atoms: _371  and  _372
REMARK  143  A    between atoms: _371  and  _374
REMARK  144  A    between atoms: _374  and  _375
REMARK  145  A    between atoms: _377  and  _379
REMARK  146  A    between atoms: _379  and  _380
REMARK  147  A    between atoms: _379  and  _382
REMARK  148  A    between atoms: _382  and  _383
REMARK                            x       y       z     vdW  Elec       q    Type
REMARK                         _______ _______ _______ _____ _____    ______ ____
ROOT
ATOM      1  NE  ARG A   1      52.109  85.575  -5.879  0.00  0.00    -0.265 N 
ATOM      2  HE  ARG A   1      51.451  84.834  -5.564  0.00  0.00    +0.259 HD
ATOM      3  CZ  ARG A   1      51.604  86.784  -6.150  0.00  0.00    +0.342 C 
ATOM      4  NH2 ARG A   1      50.299  87.009  -5.991  0.00  0.00    -0.292 N 
ATOM      5 HH21 ARG A   1      49.677  86.246  -5.657  0.00  0.00    +0.255 HD
ATOM      6 HH22 ARG A   1      49.904  87.948  -6.201  0.00  0.00    +0.255 HD
ATOM      7  NH1 ARG A   1      52.406  87.785  -6.517  0.00  0.00    -0.292 N 
ATOM      8 HH11 ARG A   1      53.431  87.628  -6.594  0.00  0.00    +0.255 HD
ATOM      9 HH12 ARG A   1      52.006  88.722  -6.726  0.00  0.00    +0.255 HD
ENDROOT
BRANCH   1  10
ATOM     10  CD  ARG A   1      53.518  85.227  -5.995  0.00  0.00    +0.174 C 
BRANCH  10  11
ATOM     11  CG  ARG A   1      54.089  84.711  -4.639  0.00  0.00    +0.045 C 
BRANCH  11  12
ATOM     12  CB  ARG A   1      54.002  85.706  -3.469  0.00  0.00    +0.029 C 
BRANCH  12  13
ATOM     13  CA  ARG A   1      54.686  87.045  -3.754  0.00  0.00    +0.133 C 
BRANCH  13  14
ATOM     14  N   ARG A   1      55.975  86.837  -4.410  0.00  0.00    -0.239 NA
ATOM     15  H   ARG A   1      56.052  87.097  -5.414  0.00  0.00    +0.142 HD
ENDBRANCH  13  14
BRANCH  13  16
ATOM     16  C   ARG A   1      54.836  87.920  -2.510  0.00  0.00    +0.224 C 
ATOM     17  O   ARG A   1      54.834  87.450  -1.387  0.00  0.00    -0.287 OA
ENDBRANCH  13  16
ENDBRANCH  12  13
ENDBRANCH  11  12
ENDBRANCH  10  11
ENDBRANCH   1  10
TORSDOF 6
REMARK  Name = ../refined-set-2016/1tog/1tog_pocket.pdb
REMARK  148 active torsions:
REMARK  status: ('A' for Active; 'I' for Inactive)
REMARK    1  A    between atoms: _1  and  _3
REMARK    2  A    between atoms: _3  and  _4
REMARK    3  A    between atoms: _3  and  _6
REMARK    4  A    between atoms: _6  and  _7
REMARK    5  A    between atoms: _11  and  _12
REMARK    6  A    between atoms: _17  and  _19
REMARK    7  A    between atoms: _19  and  _20
REMARK    8  A    between atoms: _19  and  _22
REMARK    9  A    between atoms: _22  and  _23
REMARK   10  A    between atoms: _26  and  _28
REMARK   11  A    between atoms: _28  and  _29
REMARK   12  A    between atoms: _28  and  _31
REMARK   13  A    between atoms: _31  and  _32
REMARK   14  A    between atoms: _35  and  _37
REMARK   15  A    between atoms: _37  and  _38
REMARK   16  A    between atoms: _40  and  _42
REMARK   17  A    between atoms: _42  and  _43
REMARK   18  A    between atoms: _42  and  _45
REMARK   19  A    between atoms: _45  and  _46
REMARK   20  A    between atoms: _49  and  _51
REMARK   21  A    between atoms: _51  and  _52
REMARK   22  A    between atoms: _51  and  _54
REMARK   23  A    between atoms: _54  and  _55
REMARK   24  A    between atoms: _58  and  _60
REMARK   25  A    between atoms: _60  and  _61
REMARK   26  A    between atoms: _63  and  _65
REMARK   27  A    between atoms: _65  and  _66
REMARK   28  A    between atoms: _65  and  _68
REMARK   29  A    between atoms: _68  and  _69
REMARK   30  A    between atoms: _72  and  _74
REMARK   31  A    between atoms: _74  and  _75
REMARK   32  A    between atoms: _77  and  _79
REMARK   33  A    between atoms: _79  and  _80
REMARK   34  A    between atoms: _79  and  _82
REMARK   35  A    between atoms: _85  and  _87
REMARK   36  A    between atoms: _87  and  _88
REMARK   37  A    between atoms: _90  and  _92
REMARK   38  A    between atoms: _92  and  _93
REMARK   39  A    between atoms: _92  and  _95
REMARK   40  A    between atoms: _95  and  _96
REMARK   41  A    between atoms: _98  and  _100
REMARK   42  A    between atoms: _100  and  _101
REMARK   43  A    between atoms: _103  and  _105
REMARK   44  A    between atoms: _105  and  _106
REMARK   45  A    between atoms: _105  and  _108
REMARK   46  A    between atoms: _108  and  _109
REMARK   47  A    between atoms: _112  and  _114
REMARK   48  A    between atoms: _114  and  _115
REMARK   49  A    between atoms: _114  and  _117
REMARK   50  A    between atoms: _117  and  _118
REMARK   51  A    between atoms: _129  and  _130
REMARK   52  A    between atoms: _135  and  _137
REMARK   53  A    between atoms: _137  and  _138
REMARK   54  A    between atoms: _137  and  _140
REMARK   55  A    between atoms: _140  and  _141
REMARK   56  A    between atoms: _146  and  _148
REMARK   57  A    between atoms: _148  and  _149
REMARK   58  A    between atoms: _148  and  _151
REMARK   59  A    between atoms: _151  and  _152
REMARK   60  A    between atoms: _158  and  _159
REMARK   61  A    between atoms: _164  and  _166
REMARK   62  A    between atoms: _166  and  _167
REMARK   63  A    between atoms: _170  and  _172
REMARK   64  A    between atoms: _172  and  _173
REMARK   65  A    between atoms: _172  and  _175
REMARK   66  A    between atoms: _175  and  _176
REMARK   67  A    between atoms: _181  and  _182
REMARK   68  A    between atoms: _184  and  _186
REMARK   69  A    between atoms: _186  and  _187
REMARK   70  A    between atoms: _186  and  _189
REMARK   71  A    between atoms: _189  and  _190
REMARK   72  A    between atoms: _192  and  _194
REMARK   73  A    between atoms: _194  and  _195
REMARK   74  A    between atoms: _194  and  _197
REMARK   75  A    between atoms: _197  and  _198
REMARK   76  A    between atoms: _205  and  _206
REMARK   77  A    between atoms: _206  and  _222
REMARK   78  A    between atoms: _207  and  _209
REMARK   79  A    between atoms: _209  and  _210
REMARK   80  A    between atoms: _210  and  _211
REMARK   81  A    between atoms: _215  and  _217
REMARK   82  A    between atoms: _217  and  _218
REMARK   83  A    between atoms: _217  and  _225
REMARK   84  A    between atoms: _218  and  _219
REMARK   85  A    between atoms: _219  and  _220
REMARK   86  A    between atoms: _220  and  _221
REMARK   87  A    between atoms: _221  and  _222
REMARK   88  A    between atoms: _227  and  _229
REMARK   89  A    between atoms: _229  and  _230
REMARK   90  A    between atoms: _229  and  _232
REMARK   91  A    between atoms: _232  and  _233
REMARK   92  A    between atoms: _238  and  _239
REMARK   93  A    between atoms: _241  and  _243
REMARK   94  A    between atoms: _243  and  _244
REMARK   95  A    between atoms: _243  and  _246
REMARK   96  A    between atoms: _246  and  _247
REMARK   97  A    between atoms: _247  and  _248
REMARK   98  A    between atoms: _248  and  _249
REMARK   99  A    between atoms: _258  and  _260
REMARK  100  A    between atoms: _260  and  _261
REMARK  101  A    between atoms: _260  and  _263
REMARK  102  A    between atoms: _263  and  _264
REMARK  103  A    between atoms: _264  and  _265
REMARK  104  A    between atoms: _267  and  _269
REMARK  105  A    between atoms: _269  and  _270
REMARK  106  A    between atoms: _269  and  _272
REMARK  107  A    between atoms: _272  and  _273
REMARK  108  A    between atoms: _279  and  _281
REMARK  109  A    between atoms: _281  and  _282
REMARK  110  A    between atoms: _281  and  _284
REMARK  111  A    between atoms: _287  and  _289
REMARK  112  A    between atoms: _289  and  _290
REMARK  113  A    between atoms: _289  and  _292
REMARK  114  A    between atoms: _292  and  _293
REMARK  115  A    between atoms: _293  and  _294
REMARK  116  A    between atoms: _294  and  _295
REMARK  117  A    between atoms: _304  and  _306
REMARK  118  A    between atoms: _306  and  _307
REMARK  119  A    between atoms: _306  and  _309
REMARK  120  A    between atoms: _309  and  _310
REMARK  121  A    between atoms: _315  and  _317
REMARK  122  A    between atoms: _317  and  _318
REMARK  123  A    between atoms: _317  and  _320
REMARK  124  A    between atoms: _320  and  _321
REMARK  125  A    between atoms: _326  and  _327
REMARK  126  A    between atoms: _329  and  _331
REMARK  127  A    between atoms: _331  and  _332
REMARK  128  A    between atoms: _331  and  _334
REMARK  129  A    between atoms: _334  and  _335
REMARK  130  A    between atoms: _338  and  _340
REMARK  131  A    between atoms: _340  and  _341
REMARK  132  A    between atoms: _340  and  _343
REMARK  133  A    between atoms: _343  and  _344
REMARK  134  A    between atoms: _344  and  _345
REMARK  135  A    between atoms: _345  and  _346
REMARK  136  A    between atoms: _355  and  _357
REMARK  137  A    between atoms: _357  and  _358
REMARK  138  A    between atoms: _357  and  _360
REMARK  139  A    between atoms: _360  and  _361
REMARK  140  A    between atoms: _366  and  _367
REMARK  141  A    between atoms: _369  and  _371
REMARK  142  A    between atoms: _371  and  _372
REMARK  143  A    between atoms: _371  and  _374
REMARK  144  A    between atoms: _374  and  _375
REMARK  145  A    between atoms: _377  and  _379
REMARK  146  A    between atoms: _379  and  _380
REMARK  147  A    between atoms: _379  and  _382
REMARK  148  A    between atoms: _382  and  _383
REMARK                            x       y       z     vdW  Elec       q    Type
REMARK                         _______ _______ _______ _____ _____    ______ ____
ROOT
ATOM      1  C   MET A   1      50.724 100.064 -18.595  0.00  0.00    +0.238 C 
ATOM      2  N   PHE A   2      49.424 100.365 -18.518  0.00  0.00    -0.298 N 
ATOM      3  H   PHE A   2      49.071 100.874 -17.682  0.00  0.00    +0.150 HD
ATOM      4  O   MET A   1      51.268  99.670 -19.632  0.00  0.00    -0.274 OA
ENDROOT
BRANCH   1   5
ATOM      5  CA  MET A   1      51.553 100.246 -17.326  0.00  0.00    +0.146 C 
BRANCH   5   6
ATOM      6  N   MET A   1      50.867 101.057 -16.338  0.00  0.00    -0.238 NA
ATOM      7  H   MET A   1      50.132 100.620 -15.747  0.00  0.00    +0.142 HD
ENDBRANCH   5   6
BRANCH   5   8
ATOM      8  CB  MET A   1      51.886  98.874 -16.714  0.00  0.00    +0.038 C 
BRANCH   8   9
ATOM      9  CG  MET A   1      52.939  98.927 -15.613  0.00  0.00    +0.060 C 
BRANCH   9  10
ATOM     10  SD  MET A   1      53.611  97.284 -15.429  0.00  0.00    -0.139 S 
ATOM     11  CE  MET A   1      54.637  97.430 -13.957  0.00  0.00    +0.069 C 
ENDBRANCH   9  10
ENDBRANCH   8   9
ENDBRANCH   5   8
ENDBRANCH   1   5
BRANCH   2  12
ATOM     12  CA  PHE A   2      48.480  99.997 -19.581  0.00  0.00    +0.141 C 
BRANCH  12  13
ATOM     13  C   PHE A   2      47.943 101.160 -20.432  0.00  0.00    +0.227 C 
ATOM     14  O   PHE A   2      48.063 102.339 -20.070  0.00  0.00    -0.286 OA
ENDBRANCH  12  13
BRANCH  12  15
ATOM     15  CB  PHE A   2      47.296  99.191 -18.990  0.00  0.00    +0.054 C 
BRANCH  15  16
ATOM     16  CG  PHE A   2      47.716  98.007 -18.144  0.00  0.00    -0.020 A 
ATOM     17  CD2 PHE A   2      47.537  98.024 -16.758  0.00  0.00    -0.004 A 
ATOM     18  CE2 PHE A   2      47.919  96.921 -15.960  0.00  0.00    -0.000 A 
ATOM     19  CZ  PHE A   2      48.469  95.775 -16.559  0.00  0.00    -0.000 A 
ATOM     20  CE1 PHE A   2      48.674  95.754 -17.932  0.00  0.00    -0.000 A 
ATOM     21  CD1 PHE A   2      48.281  96.874 -18.728  0.00  0.00    -0.004 A 
ENDBRANCH  15  16
ENDBRANCH  12  15
ENDBRANCH   2  12
TORSDOF 9
REMARK  Name = ../refined-set-2016/1tog/1tog_pocket.pdb
REMARK  148 active torsions:
REMARK  status: ('A' for Active; 'I' for Inactive)
REMARK    1  A    between atoms: _1  and  _3
REMARK    2  A    between atoms: _3  and  _4
REMARK    3  A    between atoms: _3  and  _6
REMARK    4  A    between atoms: _6  and  _7
REMARK    5  A    between atoms: _11  and  _12
REMARK    6  A    between atoms: _17  and  _19
REMARK    7  A    between atoms: _19  and  _20
REMARK    8  A    between atoms: _19  and  _22
REMARK    9  A    between atoms: _22  and  _23
REMARK   10  A    between atoms: _26  and  _28
REMARK   11  A    between atoms: _28  and  _29
REMARK   12  A    between atoms: _28  and  _31
REMARK   13  A    between atoms: _31  and  _32
REMARK   14  A    between atoms: _35  and  _37
REMARK   15  A    between atoms: _37  and  _38
REMARK   16  A    between atoms: _40  and  _42
REMARK   17  A    between atoms: _42  and  _43
REMARK   18  A    between atoms: _42  and  _45
REMARK   19  A    between atoms: _45  and  _46
REMARK   20  A    between atoms: _49  and  _51
REMARK   21  A    between atoms: _51  and  _52
REMARK   22  A    between atoms: _51  and  _54
REMARK   23  A    between atoms: _54  and  _55
REMARK   24  A    between atoms: _58  and  _60
REMARK   25  A    between atoms: _60  and  _61
REMARK   26  A    between atoms: _63  and  _65
REMARK   27  A    between atoms: _65  and  _66
REMARK   28  A    between atoms: _65  and  _68
REMARK   29  A    between atoms: _68  and  _69
REMARK   30  A    between atoms: _72  and  _74
REMARK   31  A    between atoms: _74  and  _75
REMARK   32  A    between atoms: _77  and  _79
REMARK   33  A    between atoms: _79  and  _80
REMARK   34  A    between atoms: _79  and  _82
REMARK   35  A    between atoms: _85  and  _87
REMARK   36  A    between atoms: _87  and  _88
REMARK   37  A    between atoms: _90  and  _92
REMARK   38  A    between atoms: _92  and  _93
REMARK   39  A    between atoms: _92  and  _95
REMARK   40  A    between atoms: _95  and  _96
REMARK   41  A    between atoms: _98  and  _100
REMARK   42  A    between atoms: _100  and  _101
REMARK   43  A    between atoms: _103  and  _105
REMARK   44  A    between atoms: _105  and  _106
REMARK   45  A    between atoms: _105  and  _108
REMARK   46  A    between atoms: _108  and  _109
REMARK   47  A    between atoms: _112  and  _114
REMARK   48  A    between atoms: _114  and  _115
REMARK   49  A    between atoms: _114  and  _117
REMARK   50  A    between atoms: _117  and  _118
REMARK   51  A    between atoms: _129  and  _130
REMARK   52  A    between atoms: _135  and  _137
REMARK   53  A    between atoms: _137  and  _138
REMARK   54  A    between atoms: _137  and  _140
REMARK   55  A    between atoms: _140  and  _141
REMARK   56  A    between atoms: _146  and  _148
REMARK   57  A    between atoms: _148  and  _149
REMARK   58  A    between atoms: _148  and  _151
REMARK   59  A    between atoms: _151  and  _152
REMARK   60  A    between atoms: _158  and  _159
REMARK   61  A    between atoms: _164  and  _166
REMARK   62  A    between atoms: _166  and  _167
REMARK   63  A    between atoms: _170  and  _172
REMARK   64  A    between atoms: _172  and  _173
REMARK   65  A    between atoms: _172  and  _175
REMARK   66  A    between atoms: _175  and  _176
REMARK   67  A    between atoms: _181  and  _182
REMARK   68  A    between atoms: _184  and  _186
REMARK   69  A    between atoms: _186  and  _187
REMARK   70  A    between atoms: _186  and  _189
REMARK   71  A    between atoms: _189  and  _190
REMARK   72  A    between atoms: _192  and  _194
REMARK   73  A    between atoms: _194  and  _195
REMARK   74  A    between atoms: _194  and  _197
REMARK   75  A    between atoms: _197  and  _198
REMARK   76  A    between atoms: _205  and  _206
REMARK   77  A    between atoms: _206  and  _222
REMARK   78  A    between atoms: _207  and  _209
REMARK   79  A    between atoms: _209  and  _210
REMARK   80  A    between atoms: _210  and  _211
REMARK   81  A    between atoms: _215  and  _217
REMARK   82  A    between atoms: _217  and  _218
REMARK   83  A    between atoms: _217  and  _225
REMARK   84  A    between atoms: _218  and  _219
REMARK   85  A    between atoms: _219  and  _220
REMARK   86  A    between atoms: _220  and  _221
REMARK   87  A    between atoms: _221  and  _222
REMARK   88  A    between atoms: _227  and  _229
REMARK   89  A    between atoms: _229  and  _230
REMARK   90  A    between atoms: _229  and  _232
REMARK   91  A    between atoms: _232  and  _233
REMARK   92  A    between atoms: _238  and  _239
REMARK   93  A    between atoms: _241  and  _243
REMARK   94  A    between atoms: _243  and  _244
REMARK   95  A    between atoms: _243  and  _246
REMARK   96  A    between atoms: _246  and  _247
REMARK   97  A    between atoms: _247  and  _248
REMARK   98  A    between atoms: _248  and  _249
REMARK   99  A    between atoms: _258  and  _260
REMARK  100  A    between atoms: _260  and  _261
REMARK  101  A    between atoms: _260  and  _263
REMARK  102  A    between atoms: _263  and  _264
REMARK  103  A    between atoms: _264  and  _265
REMARK  104  A    between atoms: _267  and  _269
REMARK  105  A    between atoms: _269  and  _270
REMARK  106  A    between atoms: _269  and  _272
REMARK  107  A    between atoms: _272  and  _273
REMARK  108  A    between atoms: _279  and  _281
REMARK  109  A    between atoms: _281  and  _282
REMARK  110  A    between atoms: _281  and  _284
REMARK  111  A    between atoms: _287  and  _289
REMARK  112  A    between atoms: _289  and  _290
REMARK  113  A    between atoms: _289  and  _292
REMARK  114  A    between atoms: _292  and  _293
REMARK  115  A    between atoms: _293  and  _294
REMARK  116  A    between atoms: _294  and  _295
REMARK  117  A    between atoms: _304  and  _306
REMARK  118  A    between atoms: _306  and  _307
REMARK  119  A    between atoms: _306  and  _309
REMARK  120  A    between atoms: _309  and  _310
REMARK  121  A    between atoms: _315  and  _317
REMARK  122  A    between atoms: _317  and  _318
REMARK  123  A    between atoms: _317  and  _320
REMARK  124  A    between atoms: _320  and  _321
REMARK  125  A    between atoms: _326  and  _327
REMARK  126  A    between atoms: _329  and  _331
REMARK  127  A    between atoms: _331  and  _332
REMARK  128  A    between atoms: _331  and  _334
REMARK  129  A    between atoms: _334  and  _335
REMARK  130  A    between atoms: _338  and  _340
REMARK  131  A    between atoms: _340  and  _341
REMARK  132  A    between atoms: _340  and  _343
REMARK  133  A    between atoms: _343  and  _344
REMARK  134  A    between atoms: _344  and  _345
REMARK  135  A    between atoms: _345  and  _346
REMARK  136  A    between atoms: _355  and  _357
REMARK  137  A    between atoms: _357  and  _358
REMARK  138  A    between atoms: _357  and  _360
REMARK  139  A    between atoms: _360  and  _361
REMARK  140  A    between atoms: _366  and  _367
REMARK  141  A    between atoms: _369  and  _371
REMARK  142  A    between atoms: _371  and  _372
REMARK  143  A    between atoms: _371  and  _374
REMARK  144  A    between atoms: _374  and  _375
REMARK  145  A    between atoms: _377  and  _379
REMARK  146  A    between atoms: _379  and  _380
REMARK  147  A    between atoms: _379  and  _382
REMARK  148  A    between atoms: _382  and  _383
REMARK                            x       y       z     vdW  Elec       q    Type
REMARK                         _______ _______ _______ _____ _____    ______ ____
ROOT
ATOM      1  CA  VAL A   1      43.679  91.330 -22.695  0.00  0.00    +0.133 C 
ENDROOT
BRANCH   1   2
ATOM      2  CB  VAL A   1      43.775  92.108 -21.355  0.00  0.00    +0.023 C 
ATOM      3  CG2 VAL A   1      42.543  91.879 -20.485  0.00  0.00    +0.002 C 
ATOM      4  CG1 VAL A   1      45.052  91.682 -20.615  0.00  0.00    +0.002 C 
ENDBRANCH   1   2
BRANCH   1   5
ATOM      5  N   VAL A   1      44.749  91.741 -23.594  0.00  0.00    -0.239 NA
ATOM      6  H   VAL A   1      45.302  92.591 -23.366  0.00  0.00    +0.142 HD
ENDBRANCH   1   5
BRANCH   1   7
ATOM      7  C   VAL A   1      42.326  91.507 -23.382  0.00  0.00    +0.224 C 
ATOM      8  O   VAL A   1      42.144  92.441 -24.171  0.00  0.00    -0.287 OA
ENDBRANCH   1   7
TORSDOF 3
REMARK  Name = ../refined-set-2016/1tog/1tog_pocket.pdb
REMARK  148 active torsions:
REMARK  status: ('A' for Active; 'I' for Inactive)
REMARK    1  A    between atoms: _1  and  _3
REMARK    2  A    between atoms: _3  and  _4
REMARK    3  A    between atoms: _3  and  _6
REMARK    4  A    between atoms: _6  and  _7
REMARK    5  A    between atoms: _11  and  _12
REMARK    6  A    between atoms: _17  and  _19
REMARK    7  A    between atoms: _19  and  _20
REMARK    8  A    between atoms: _19  and  _22
REMARK    9  A    between atoms: _22  and  _23
REMARK   10  A    between atoms: _26  and  _28
REMARK   11  A    between atoms: _28  and  _29
REMARK   12  A    between atoms: _28  and  _31
REMARK   13  A    between atoms: _31  and  _32
REMARK   14  A    between atoms: _35  and  _37
REMARK   15  A    between atoms: _37  and  _38
REMARK   16  A    between atoms: _40  and  _42
REMARK   17  A    between atoms: _42  and  _43
REMARK   18  A    between atoms: _42  and  _45
REMARK   19  A    between atoms: _45  and  _46
REMARK   20  A    between atoms: _49  and  _51
REMARK   21  A    between atoms: _51  and  _52
REMARK   22  A    between atoms: _51  and  _54
REMARK   23  A    between atoms: _54  and  _55
REMARK   24  A    between atoms: _58  and  _60
REMARK   25  A    between atoms: _60  and  _61
REMARK   26  A    between atoms: _63  and  _65
REMARK   27  A    between atoms: _65  and  _66
REMARK   28  A    between atoms: _65  and  _68
REMARK   29  A    between atoms: _68  and  _69
REMARK   30  A    between atoms: _72  and  _74
REMARK   31  A    between atoms: _74  and  _75
REMARK   32  A    between atoms: _77  and  _79
REMARK   33  A    between atoms: _79  and  _80
REMARK   34  A    between atoms: _79  and  _82
REMARK   35  A    between atoms: _85  and  _87
REMARK   36  A    between atoms: _87  and  _88
REMARK   37  A    between atoms: _90  and  _92
REMARK   38  A    between atoms: _92  and  _93
REMARK   39  A    between atoms: _92  and  _95
REMARK   40  A    between atoms: _95  and  _96
REMARK   41  A    between atoms: _98  and  _100
REMARK   42  A    between atoms: _100  and  _101
REMARK   43  A    between atoms: _103  and  _105
REMARK   44  A    between atoms: _105  and  _106
REMARK   45  A    between atoms: _105  and  _108
REMARK   46  A    between atoms: _108  and  _109
REMARK   47  A    between atoms: _112  and  _114
REMARK   48  A    between atoms: _114  and  _115
REMARK   49  A    between atoms: _114  and  _117
REMARK   50  A    between atoms: _117  and  _118
REMARK   51  A    between atoms: _129  and  _130
REMARK   52  A    between atoms: _135  and  _137
REMARK   53  A    between atoms: _137  and  _138
REMARK   54  A    between atoms: _137  and  _140
REMARK   55  A    between atoms: _140  and  _141
REMARK   56  A    between atoms: _146  and  _148
REMARK   57  A    between atoms: _148  and  _149
REMARK   58  A    between atoms: _148  and  _151
REMARK   59  A    between atoms: _151  and  _152
REMARK   60  A    between atoms: _158  and  _159
REMARK   61  A    between atoms: _164  and  _166
REMARK   62  A    between atoms: _166  and  _167
REMARK   63  A    between atoms: _170  and  _172
REMARK   64  A    between atoms: _172  and  _173
REMARK   65  A    between atoms: _172  and  _175
REMARK   66  A    between atoms: _175  and  _176
REMARK   67  A    between atoms: _181  and  _182
REMARK   68  A    between atoms: _184  and  _186
REMARK   69  A    between atoms: _186  and  _187
REMARK   70  A    between atoms: _186  and  _189
REMARK   71  A    between atoms: _189  and  _190
REMARK   72  A    between atoms: _192  and  _194
REMARK   73  A    between atoms: _194  and  _195
REMARK   74  A    between atoms: _194  and  _197
REMARK   75  A    between atoms: _197  and  _198
REMARK   76  A    between atoms: _205  and  _206
REMARK   77  A    between atoms: _206  and  _222
REMARK   78  A    between atoms: _207  and  _209
REMARK   79  A    between atoms: _209  and  _210
REMARK   80  A    between atoms: _210  and  _211
REMARK   81  A    between atoms: _215  and  _217
REMARK   82  A    between atoms: _217  and  _218
REMARK   83  A    between atoms: _217  and  _225
REMARK   84  A    between atoms: _218  and  _219
REMARK   85  A    between atoms: _219  and  _220
REMARK   86  A    between atoms: _220  and  _221
REMARK   87  A    between atoms: _221  and  _222
REMARK   88  A    between atoms: _227  and  _229
REMARK   89  A    between atoms: _229  and  _230
REMARK   90  A    between atoms: _229  and  _232
REMARK   91  A    between atoms: _232  and  _233
REMARK   92  A    between atoms: _238  and  _239
REMARK   93  A    between atoms: _241  and  _243
REMARK   94  A    between atoms: _243  and  _244
REMARK   95  A    between atoms: _243  and  _246
REMARK   96  A    between atoms: _246  and  _247
REMARK   97  A    between atoms: _247  and  _248
REMARK   98  A    between atoms: _248  and  _249
REMARK   99  A    between atoms: _258  and  _260
REMARK  100  A    between atoms: _260  and  _261
REMARK  101  A    between atoms: _260  and  _263
REMARK  102  A    between atoms: _263  and  _264
REMARK  103  A    between atoms: _264  and  _265
REMARK  104  A    between atoms: _267  and  _269
REMARK  105  A    between atoms: _269  and  _270
REMARK  106  A    between atoms: _269  and  _272
REMARK  107  A    between atoms: _272  and  _273
REMARK  108  A    between atoms: _279  and  _281
REMARK  109  A    between atoms: _281  and  _282
REMARK  110  A    between atoms: _281  and  _284
REMARK  111  A    between atoms: _287  and  _289
REMARK  112  A    between atoms: _289  and  _290
REMARK  113  A    between atoms: _289  and  _292
REMARK  114  A    between atoms: _292  and  _293
REMARK  115  A    between atoms: _293  and  _294
REMARK  116  A    between atoms: _294  and  _295
REMARK  117  A    between atoms: _304  and  _306
REMARK  118  A    between atoms: _306  and  _307
REMARK  119  A    between atoms: _306  and  _309
REMARK  120  A    between atoms: _309  and  _310
REMARK  121  A    between atoms: _315  and  _317
REMARK  122  A    between atoms: _317  and  _318
REMARK  123  A    between atoms: _317  and  _320
REMARK  124  A    between atoms: _320  and  _321
REMARK  125  A    between atoms: _326  and  _327
REMARK  126  A    between atoms: _329  and  _331
REMARK  127  A    between atoms: _331  and  _332
REMARK  128  A    between atoms: _331  and  _334
REMARK  129  A    between atoms: _334  and  _335
REMARK  130  A    between atoms: _338  and  _340
REMARK  131  A    between atoms: _340  and  _341
REMARK  132  A    between atoms: _340  and  _343
REMARK  133  A    between atoms: _343  and  _344
REMARK  134  A    between atoms: _344  and  _345
REMARK  135  A    between atoms: _345  and  _346
REMARK  136  A    between atoms: _355  and  _357
REMARK  137  A    between atoms: _357  and  _358
REMARK  138  A    between atoms: _357  and  _360
REMARK  139  A    between atoms: _360  and  _361
REMARK  140  A    between atoms: _366  and  _367
REMARK  141  A    between atoms: _369  and  _371
REMARK  142  A    between atoms: _371  and  _372
REMARK  143  A    between atoms: _371  and  _374
REMARK  144  A    between atoms: _374  and  _375
REMARK  145  A    between atoms: _377  and  _379
REMARK  146  A    between atoms: _379  and  _380
REMARK  147  A    between atoms: _379  and  _382
REMARK  148  A    between atoms: _382  and  _383
REMARK                            x       y       z     vdW  Elec       q    Type
REMARK                         _______ _______ _______ _____ _____    ______ ____
ROOT
ATOM      1  NE  ARG A   1      45.549  94.797 -18.667  0.00  0.00    -0.265 N 
ATOM      2  CZ  ARG A   1      45.811  93.965 -17.660  0.00  0.00    +0.342 C 
ATOM      3  NH2 ARG A   1      45.324  94.186 -16.427  0.00  0.00    -0.292 N 
ATOM      4 HH21 ARG A   1      45.541  93.523 -15.656  0.00  0.00    +0.255 HD
ATOM      5 HH22 ARG A   1      44.730  95.020 -16.244  0.00  0.00    +0.255 HD
ATOM      6  NH1 ARG A   1      46.551  92.897 -17.883  0.00  0.00    -0.292 N 
ATOM      7 HH11 ARG A   1      46.763  92.240 -17.105  0.00  0.00    +0.255 HD
ATOM      8 HH12 ARG A   1      46.923  92.712 -18.836  0.00  0.00    +0.255 HD
ATOM      9  HE  ARG A   1      45.920  94.556 -19.608  0.00  0.00    +0.259 HD
ENDROOT
BRANCH   1  10
ATOM     10  CD  ARG A   1      44.769  96.032 -18.529  0.00  0.00    +0.174 C 
BRANCH  10  11
ATOM     11  CG  ARG A   1      44.649  96.776 -19.840  0.00  0.00    +0.045 C 
BRANCH  11  12
ATOM     12  CB  ARG A   1      43.686  96.102 -20.801  0.00  0.00    +0.029 C 
BRANCH  12  13
ATOM     13  CA  ARG A   1      43.807  96.503 -22.273  0.00  0.00    +0.133 C 
BRANCH  13  14
ATOM     14  N   ARG A   1      42.695  95.942 -23.008  0.00  0.00    -0.239 NA
ATOM     15  H   ARG A   1      42.105  95.213 -22.559  0.00  0.00    +0.142 HD
ENDBRANCH  13  14
BRANCH  13  16
ATOM     16  C   ARG A   1      45.122  95.979 -22.873  0.00  0.00    +0.224 C 
ATOM     17  O   ARG A   1      45.283  94.765 -23.052  0.00  0.00    -0.287 OA
ENDBRANCH  13  16
ENDBRANCH  12  13
ENDBRANCH  11  12
ENDBRANCH  10  11
ENDBRANCH   1  10
TORSDOF 6
REMARK  Name = ../refined-set-2016/1tog/1tog_pocket.pdb
REMARK  148 active torsions:
REMARK  status: ('A' for Active; 'I' for Inactive)
REMARK    1  A    between atoms: _1  and  _3
REMARK    2  A    between atoms: _3  and  _4
REMARK    3  A    between atoms: _3  and  _6
REMARK    4  A    between atoms: _6  and  _7
REMARK    5  A    between atoms: _11  and  _12
REMARK    6  A    between atoms: _17  and  _19
REMARK    7  A    between atoms: _19  and  _20
REMARK    8  A    between atoms: _19  and  _22
REMARK    9  A    between atoms: _22  and  _23
REMARK   10  A    between atoms: _26  and  _28
REMARK   11  A    between atoms: _28  and  _29
REMARK   12  A    between atoms: _28  and  _31
REMARK   13  A    between atoms: _31  and  _32
REMARK   14  A    between atoms: _35  and  _37
REMARK   15  A    between atoms: _37  and  _38
REMARK   16  A    between atoms: _40  and  _42
REMARK   17  A    between atoms: _42  and  _43
REMARK   18  A    between atoms: _42  and  _45
REMARK   19  A    between atoms: _45  and  _46
REMARK   20  A    between atoms: _49  and  _51
REMARK   21  A    between atoms: _51  and  _52
REMARK   22  A    between atoms: _51  and  _54
REMARK   23  A    between atoms: _54  and  _55
REMARK   24  A    between atoms: _58  and  _60
REMARK   25  A    between atoms: _60  and  _61
REMARK   26  A    between atoms: _63  and  _65
REMARK   27  A    between atoms: _65  and  _66
REMARK   28  A    between atoms: _65  and  _68
REMARK   29  A    between atoms: _68  and  _69
REMARK   30  A    between atoms: _72  and  _74
REMARK   31  A    between atoms: _74  and  _75
REMARK   32  A    between atoms: _77  and  _79
REMARK   33  A    between atoms: _79  and  _80
REMARK   34  A    between atoms: _79  and  _82
REMARK   35  A    between atoms: _85  and  _87
REMARK   36  A    between atoms: _87  and  _88
REMARK   37  A    between atoms: _90  and  _92
REMARK   38  A    between atoms: _92  and  _93
REMARK   39  A    between atoms: _92  and  _95
REMARK   40  A    between atoms: _95  and  _96
REMARK   41  A    between atoms: _98  and  _100
REMARK   42  A    between atoms: _100  and  _101
REMARK   43  A    between atoms: _103  and  _105
REMARK   44  A    between atoms: _105  and  _106
REMARK   45  A    between atoms: _105  and  _108
REMARK   46  A    between atoms: _108  and  _109
REMARK   47  A    between atoms: _112  and  _114
REMARK   48  A    between atoms: _114  and  _115
REMARK   49  A    between atoms: _114  and  _117
REMARK   50  A    between atoms: _117  and  _118
REMARK   51  A    between atoms: _129  and  _130
REMARK   52  A    between atoms: _135  and  _137
REMARK   53  A    between atoms: _137  and  _138
REMARK   54  A    between atoms: _137  and  _140
REMARK   55  A    between atoms: _140  and  _141
REMARK   56  A    between atoms: _146  and  _148
REMARK   57  A    between atoms: _148  and  _149
REMARK   58  A    between atoms: _148  and  _151
REMARK   59  A    between atoms: _151  and  _152
REMARK   60  A    between atoms: _158  and  _159
REMARK   61  A    between atoms: _164  and  _166
REMARK   62  A    between atoms: _166  and  _167
REMARK   63  A    between atoms: _170  and  _172
REMARK   64  A    between atoms: _172  and  _173
REMARK   65  A    between atoms: _172  and  _175
REMARK   66  A    between atoms: _175  and  _176
REMARK   67  A    between atoms: _181  and  _182
REMARK   68  A    between atoms: _184  and  _186
REMARK   69  A    between atoms: _186  and  _187
REMARK   70  A    between atoms: _186  and  _189
REMARK   71  A    between atoms: _189  and  _190
REMARK   72  A    between atoms: _192  and  _194
REMARK   73  A    between atoms: _194  and  _195
REMARK   74  A    between atoms: _194  and  _197
REMARK   75  A    between atoms: _197  and  _198
REMARK   76  A    between atoms: _205  and  _206
REMARK   77  A    between atoms: _206  and  _222
REMARK   78  A    between atoms: _207  and  _209
REMARK   79  A    between atoms: _209  and  _210
REMARK   80  A    between atoms: _210  and  _211
REMARK   81  A    between atoms: _215  and  _217
REMARK   82  A    between atoms: _217  and  _218
REMARK   83  A    between atoms: _217  and  _225
REMARK   84  A    between atoms: _218  and  _219
REMARK   85  A    between atoms: _219  and  _220
REMARK   86  A    between atoms: _220  and  _221
REMARK   87  A    between atoms: _221  and  _222
REMARK   88  A    between atoms: _227  and  _229
REMARK   89  A    between atoms: _229  and  _230
REMARK   90  A    between atoms: _229  and  _232
REMARK   91  A    between atoms: _232  and  _233
REMARK   92  A    between atoms: _238  and  _239
REMARK   93  A    between atoms: _241  and  _243
REMARK   94  A    between atoms: _243  and  _244
REMARK   95  A    between atoms: _243  and  _246
REMARK   96  A    between atoms: _246  and  _247
REMARK   97  A    between atoms: _247  and  _248
REMARK   98  A    between atoms: _248  and  _249
REMARK   99  A    between atoms: _258  and  _260
REMARK  100  A    between atoms: _260  and  _261
REMARK  101  A    between atoms: _260  and  _263
REMARK  102  A    between atoms: _263  and  _264
REMARK  103  A    between atoms: _264  and  _265
REMARK  104  A    between atoms: _267  and  _269
REMARK  105  A    between atoms: _269  and  _270
REMARK  106  A    between atoms: _269  and  _272
REMARK  107  A    between atoms: _272  and  _273
REMARK  108  A    between atoms: _279  and  _281
REMARK  109  A    between atoms: _281  and  _282
REMARK  110  A    between atoms: _281  and  _284
REMARK  111  A    between atoms: _287  and  _289
REMARK  112  A    between atoms: _289  and  _290
REMARK  113  A    between atoms: _289  and  _292
REMARK  114  A    between atoms: _292  and  _293
REMARK  115  A    between atoms: _293  and  _294
REMARK  116  A    between atoms: _294  and  _295
REMARK  117  A    between atoms: _304  and  _306
REMARK  118  A    between atoms: _306  and  _307
REMARK  119  A    between atoms: _306  and  _309
REMARK  120  A    between atoms: _309  and  _310
REMARK  121  A    between atoms: _315  and  _317
REMARK  122  A    between atoms: _317  and  _318
REMARK  123  A    between atoms: _317  and  _320
REMARK  124  A    between atoms: _320  and  _321
REMARK  125  A    between atoms: _326  and  _327
REMARK  126  A    between atoms: _329  and  _331
REMARK  127  A    between atoms: _331  and  _332
REMARK  128  A    between atoms: _331  and  _334
REMARK  129  A    between atoms: _334  and  _335
REMARK  130  A    between atoms: _338  and  _340
REMARK  131  A    between atoms: _340  and  _341
REMARK  132  A    between atoms: _340  and  _343
REMARK  133  A    between atoms: _343  and  _344
REMARK  134  A    between atoms: _344  and  _345
REMARK  135  A    between atoms: _345  and  _346
REMARK  136  A    between atoms: _355  and  _357
REMARK  137  A    between atoms: _357  and  _358
REMARK  138  A    between atoms: _357  and  _360
REMARK  139  A    between atoms: _360  and  _361
REMARK  140  A    between atoms: _366  and  _367
REMARK  141  A    between atoms: _369  and  _371
REMARK  142  A    between atoms: _371  and  _372
REMARK  143  A    between atoms: _371  and  _374
REMARK  144  A    between atoms: _374  and  _375
REMARK  145  A    between atoms: _377  and  _379
REMARK  146  A    between atoms: _379  and  _380
REMARK  147  A    between atoms: _379  and  _382
REMARK  148  A    between atoms: _382  and  _383
REMARK                            x       y       z     vdW  Elec       q    Type
REMARK                         _______ _______ _______ _____ _____    ______ ____
ROOT
ATOM      1  CB  ASN A   1      51.283  95.101 -21.245  0.00  0.00    +0.110 C 
ENDROOT
BRANCH   1   2
ATOM      2  CG  ASN A   1      52.415  95.368 -20.248  0.00  0.00    +0.221 C 
ATOM      3  ND2 ASN A   1      52.361  96.505 -19.576  0.00  0.00    -0.329 N 
ATOM      4 HD21 ASN A   1      53.100  96.734 -18.881  0.00  0.00    +0.145 HD
ATOM      5 HD22 ASN A   1      51.580  97.171 -19.742  0.00  0.00    +0.145 HD
ATOM      6  OD1 ASN A   1      53.324  94.543 -20.086  0.00  0.00    -0.275 OA
ENDBRANCH   1   2
BRANCH   1   7
ATOM      7  CA  ASN A   1      50.606  96.389 -21.728  0.00  0.00    +0.142 C 
BRANCH   7   8
ATOM      8  N   ASN A   1      49.489  96.095 -22.620  0.00  0.00    -0.239 NA
ATOM      9  H   ASN A   1      49.497  95.215 -23.174  0.00  0.00    +0.142 HD
ENDBRANCH   7   8
BRANCH   7  10
ATOM     10  C   ASN A   1      51.609  97.265 -22.451  0.00  0.00    +0.225 C 
ATOM     11  O   ASN A   1      52.390  96.776 -23.269  0.00  0.00    -0.287 OA
ENDBRANCH   7  10
ENDBRANCH   1   7
TORSDOF 4
REMARK  Name = ../refined-set-2016/1tog/1tog_pocket.pdb
REMARK  148 active torsions:
REMARK  status: ('A' for Active; 'I' for Inactive)
REMARK    1  A    between atoms: _1  and  _3
REMARK    2  A    between atoms: _3  and  _4
REMARK    3  A    between atoms: _3  and  _6
REMARK    4  A    between atoms: _6  and  _7
REMARK    5  A    between atoms: _11  and  _12
REMARK    6  A    between atoms: _17  and  _19
REMARK    7  A    between atoms: _19  and  _20
REMARK    8  A    between atoms: _19  and  _22
REMARK    9  A    between atoms: _22  and  _23
REMARK   10  A    between atoms: _26  and  _28
REMARK   11  A    between atoms: _28  and  _29
REMARK   12  A    between atoms: _28  and  _31
REMARK   13  A    between atoms: _31  and  _32
REMARK   14  A    between atoms: _35  and  _37
REMARK   15  A    between atoms: _37  and  _38
REMARK   16  A    between atoms: _40  and  _42
REMARK   17  A    between atoms: _42  and  _43
REMARK   18  A    between atoms: _42  and  _45
REMARK   19  A    between atoms: _45  and  _46
REMARK   20  A    between atoms: _49  and  _51
REMARK   21  A    between atoms: _51  and  _52
REMARK   22  A    between atoms: _51  and  _54
REMARK   23  A    between atoms: _54  and  _55
REMARK   24  A    between atoms: _58  and  _60
REMARK   25  A    between atoms: _60  and  _61
REMARK   26  A    between atoms: _63  and  _65
REMARK   27  A    between atoms: _65  and  _66
REMARK   28  A    between atoms: _65  and  _68
REMARK   29  A    between atoms: _68  and  _69
REMARK   30  A    between atoms: _72  and  _74
REMARK   31  A    between atoms: _74  and  _75
REMARK   32  A    between atoms: _77  and  _79
REMARK   33  A    between atoms: _79  and  _80
REMARK   34  A    between atoms: _79  and  _82
REMARK   35  A    between atoms: _85  and  _87
REMARK   36  A    between atoms: _87  and  _88
REMARK   37  A    between atoms: _90  and  _92
REMARK   38  A    between atoms: _92  and  _93
REMARK   39  A    between atoms: _92  and  _95
REMARK   40  A    between atoms: _95  and  _96
REMARK   41  A    between atoms: _98  and  _100
REMARK   42  A    between atoms: _100  and  _101
REMARK   43  A    between atoms: _103  and  _105
REMARK   44  A    between atoms: _105  and  _106
REMARK   45  A    between atoms: _105  and  _108
REMARK   46  A    between atoms: _108  and  _109
REMARK   47  A    between atoms: _112  and  _114
REMARK   48  A    between atoms: _114  and  _115
REMARK   49  A    between atoms: _114  and  _117
REMARK   50  A    between atoms: _117  and  _118
REMARK   51  A    between atoms: _129  and  _130
REMARK   52  A    between atoms: _135  and  _137
REMARK   53  A    between atoms: _137  and  _138
REMARK   54  A    between atoms: _137  and  _140
REMARK   55  A    between atoms: _140  and  _141
REMARK   56  A    between atoms: _146  and  _148
REMARK   57  A    between atoms: _148  and  _149
REMARK   58  A    between atoms: _148  and  _151
REMARK   59  A    between atoms: _151  and  _152
REMARK   60  A    between atoms: _158  and  _159
REMARK   61  A    between atoms: _164  and  _166
REMARK   62  A    between atoms: _166  and  _167
REMARK   63  A    between atoms: _170  and  _172
REMARK   64  A    between atoms: _172  and  _173
REMARK   65  A    between atoms: _172  and  _175
REMARK   66  A    between atoms: _175  and  _176
REMARK   67  A    between atoms: _181  and  _182
REMARK   68  A    between atoms: _184  and  _186
REMARK   69  A    between atoms: _186  and  _187
REMARK   70  A    between atoms: _186  and  _189
REMARK   71  A    between atoms: _189  and  _190
REMARK   72  A    between atoms: _192  and  _194
REMARK   73  A    between atoms: _194  and  _195
REMARK   74  A    between atoms: _194  and  _197
REMARK   75  A    between atoms: _197  and  _198
REMARK   76  A    between atoms: _205  and  _206
REMARK   77  A    between atoms: _206  and  _222
REMARK   78  A    between atoms: _207  and  _209
REMARK   79  A    between atoms: _209  and  _210
REMARK   80  A    between atoms: _210  and  _211
REMARK   81  A    between atoms: _215  and  _217
REMARK   82  A    between atoms: _217  and  _218
REMARK   83  A    between atoms: _217  and  _225
REMARK   84  A    between atoms: _218  and  _219
REMARK   85  A    between atoms: _219  and  _220
REMARK   86  A    between atoms: _220  and  _221
REMARK   87  A    between atoms: _221  and  _222
REMARK   88  A    between atoms: _227  and  _229
REMARK   89  A    between atoms: _229  and  _230
REMARK   90  A    between atoms: _229  and  _232
REMARK   91  A    between atoms: _232  and  _233
REMARK   92  A    between atoms: _238  and  _239
REMARK   93  A    between atoms: _241  and  _243
REMARK   94  A    between atoms: _243  and  _244
REMARK   95  A    between atoms: _243  and  _246
REMARK   96  A    between atoms: _246  and  _247
REMARK   97  A    between atoms: _247  and  _248
REMARK   98  A    between atoms: _248  and  _249
REMARK   99  A    between atoms: _258  and  _260
REMARK  100  A    between atoms: _260  and  _261
REMARK  101  A    between atoms: _260  and  _263
REMARK  102  A    between atoms: _263  and  _264
REMARK  103  A    between atoms: _264  and  _265
REMARK  104  A    between atoms: _267  and  _269
REMARK  105  A    between atoms: _269  and  _270
REMARK  106  A    between atoms: _269  and  _272
REMARK  107  A    between atoms: _272  and  _273
REMARK  108  A    between atoms: _279  and  _281
REMARK  109  A    between atoms: _281  and  _282
REMARK  110  A    between atoms: _281  and  _284
REMARK  111  A    between atoms: _287  and  _289
REMARK  112  A    between atoms: _289  and  _290
REMARK  113  A    between atoms: _289  and  _292
REMARK  114  A    between atoms: _292  and  _293
REMARK  115  A    between atoms: _293  and  _294
REMARK  116  A    between atoms: _294  and  _295
REMARK  117  A    between atoms: _304  and  _306
REMARK  118  A    between atoms: _306  and  _307
REMARK  119  A    between atoms: _306  and  _309
REMARK  120  A    between atoms: _309  and  _310
REMARK  121  A    between atoms: _315  and  _317
REMARK  122  A    between atoms: _317  and  _318
REMARK  123  A    between atoms: _317  and  _320
REMARK  124  A    between atoms: _320  and  _321
REMARK  125  A    between atoms: _326  and  _327
REMARK  126  A    between atoms: _329  and  _331
REMARK  127  A    between atoms: _331  and  _332
REMARK  128  A    between atoms: _331  and  _334
REMARK  129  A    between atoms: _334  and  _335
REMARK  130  A    between atoms: _338  and  _340
REMARK  131  A    between atoms: _340  and  _341
REMARK  132  A    between atoms: _340  and  _343
REMARK  133  A    between atoms: _343  and  _344
REMARK  134  A    between atoms: _344  and  _345
REMARK  135  A    between atoms: _345  and  _346
REMARK  136  A    between atoms: _355  and  _357
REMARK  137  A    between atoms: _357  and  _358
REMARK  138  A    between atoms: _357  and  _360
REMARK  139  A    between atoms: _360  and  _361
REMARK  140  A    between atoms: _366  and  _367
REMARK  141  A    between atoms: _369  and  _371
REMARK  142  A    between atoms: _371  and  _372
REMARK  143  A    between atoms: _371  and  _374
REMARK  144  A    between atoms: _374  and  _375
REMARK  145  A    between atoms: _377  and  _379
REMARK  146  A    between atoms: _379  and  _380
REMARK  147  A    between atoms: _379  and  _382
REMARK  148  A    between atoms: _382  and  _383
REMARK                            x       y       z     vdW  Elec       q    Type
REMARK                         _______ _______ _______ _____ _____    ______ ____
ROOT
ATOM      1  CG  TYR A   1      53.224  86.978 -12.148  0.00  0.00    -0.020 A 
ATOM      2  CD2 TYR A   1      52.916  86.968 -10.784  0.00  0.00    -0.001 A 
ATOM      3  CE2 TYR A   1      52.472  88.122 -10.151  0.00  0.00    +0.036 A 
ATOM      4  CZ  TYR A   1      52.331  89.297 -10.896  0.00  0.00    +0.134 A 
ATOM      5  CE1 TYR A   1      52.652  89.320 -12.228  0.00  0.00    +0.036 A 
ATOM      6  CD1 TYR A   1      53.102  88.167 -12.843  0.00  0.00    -0.001 A 
ENDROOT
BRANCH   4   7
ATOM      7  OH  TYR A   1      51.921  90.476 -10.321  0.00  0.00    -0.506 OA
ATOM      8  HH  TYR A   1      51.721  90.323  -9.363  0.00  0.00    +0.292 HD
ENDBRANCH   4   7
BRANCH   1   9
ATOM      9  CB  TYR A   1      53.731  85.749 -12.840  0.00  0.00    +0.051 C 
BRANCH   9  10
ATOM     10  CA  TYR A   1      55.165  85.371 -12.396  0.00  0.00    +0.137 C 
BRANCH  10  11
ATOM     11  N   TYR A   1      56.151  86.318 -12.948  0.00  0.00    -0.239 NA
ATOM     12  H   TYR A   1      55.818  87.255 -13.251  0.00  0.00    +0.142 HD
ENDBRANCH  10  11
BRANCH  10  13
ATOM     13  C   TYR A   1      55.401  83.945 -12.822  0.00  0.00    +0.224 C 
ATOM     14  O   TYR A   1      55.522  83.679 -13.998  0.00  0.00    -0.287 OA
ENDBRANCH  10  13
ENDBRANCH   9  10
ENDBRANCH   1   9
TORSDOF 5
REMARK  Name = ../refined-set-2016/1tog/1tog_pocket.pdb
REMARK  148 active torsions:
REMARK  status: ('A' for Active; 'I' for Inactive)
REMARK    1  A    between atoms: _1  and  _3
REMARK    2  A    between atoms: _3  and  _4
REMARK    3  A    between atoms: _3  and  _6
REMARK    4  A    between atoms: _6  and  _7
REMARK    5  A    between atoms: _11  and  _12
REMARK    6  A    between atoms: _17  and  _19
REMARK    7  A    between atoms: _19  and  _20
REMARK    8  A    between atoms: _19  and  _22
REMARK    9  A    between atoms: _22  and  _23
REMARK   10  A    between atoms: _26  and  _28
REMARK   11  A    between atoms: _28  and  _29
REMARK   12  A    between atoms: _28  and  _31
REMARK   13  A    between atoms: _31  and  _32
REMARK   14  A    between atoms: _35  and  _37
REMARK   15  A    between atoms: _37  and  _38
REMARK   16  A    between atoms: _40  and  _42
REMARK   17  A    between atoms: _42  and  _43
REMARK   18  A    between atoms: _42  and  _45
REMARK   19  A    between atoms: _45  and  _46
REMARK   20  A    between atoms: _49  and  _51
REMARK   21  A    between atoms: _51  and  _52
REMARK   22  A    between atoms: _51  and  _54
REMARK   23  A    between atoms: _54  and  _55
REMARK   24  A    between atoms: _58  and  _60
REMARK   25  A    between atoms: _60  and  _61
REMARK   26  A    between atoms: _63  and  _65
REMARK   27  A    between atoms: _65  and  _66
REMARK   28  A    between atoms: _65  and  _68
REMARK   29  A    between atoms: _68  and  _69
REMARK   30  A    between atoms: _72  and  _74
REMARK   31  A    between atoms: _74  and  _75
REMARK   32  A    between atoms: _77  and  _79
REMARK   33  A    between atoms: _79  and  _80
REMARK   34  A    between atoms: _79  and  _82
REMARK   35  A    between atoms: _85  and  _87
REMARK   36  A    between atoms: _87  and  _88
REMARK   37  A    between atoms: _90  and  _92
REMARK   38  A    between atoms: _92  and  _93
REMARK   39  A    between atoms: _92  and  _95
REMARK   40  A    between atoms: _95  and  _96
REMARK   41  A    between atoms: _98  and  _100
REMARK   42  A    between atoms: _100  and  _101
REMARK   43  A    between atoms: _103  and  _105
REMARK   44  A    between atoms: _105  and  _106
REMARK   45  A    between atoms: _105  and  _108
REMARK   46  A    between atoms: _108  and  _109
REMARK   47  A    between atoms: _112  and  _114
REMARK   48  A    between atoms: _114  and  _115
REMARK   49  A    between atoms: _114  and  _117
REMARK   50  A    between atoms: _117  and  _118
REMARK   51  A    between atoms: _129  and  _130
REMARK   52  A    between atoms: _135  and  _137
REMARK   53  A    between atoms: _137  and  _138
REMARK   54  A    between atoms: _137  and  _140
REMARK   55  A    between atoms: _140  and  _141
REMARK   56  A    between atoms: _146  and  _148
REMARK   57  A    between atoms: _148  and  _149
REMARK   58  A    between atoms: _148  and  _151
REMARK   59  A    between atoms: _151  and  _152
REMARK   60  A    between atoms: _158  and  _159
REMARK   61  A    between atoms: _164  and  _166
REMARK   62  A    between atoms: _166  and  _167
REMARK   63  A    between atoms: _170  and  _172
REMARK   64  A    between atoms: _172  and  _173
REMARK   65  A    between atoms: _172  and  _175
REMARK   66  A    between atoms: _175  and  _176
REMARK   67  A    between atoms: _181  and  _182
REMARK   68  A    between atoms: _184  and  _186
REMARK   69  A    between atoms: _186  and  _187
REMARK   70  A    between atoms: _186  and  _189
REMARK   71  A    between atoms: _189  and  _190
REMARK   72  A    between atoms: _192  and  _194
REMARK   73  A    between atoms: _194  and  _195
REMARK   74  A    between atoms: _194  and  _197
REMARK   75  A    between atoms: _197  and  _198
REMARK   76  A    between atoms: _205  and  _206
REMARK   77  A    between atoms: _206  and  _222
REMARK   78  A    between atoms: _207  and  _209
REMARK   79  A    between atoms: _209  and  _210
REMARK   80  A    between atoms: _210  and  _211
REMARK   81  A    between atoms: _215  and  _217
REMARK   82  A    between atoms: _217  and  _218
REMARK   83  A    between atoms: _217  and  _225
REMARK   84  A    between atoms: _218  and  _219
REMARK   85  A    between atoms: _219  and  _220
REMARK   86  A    between atoms: _220  and  _221
REMARK   87  A    between atoms: _221  and  _222
REMARK   88  A    between atoms: _227  and  _229
REMARK   89  A    between atoms: _229  and  _230
REMARK   90  A    between atoms: _229  and  _232
REMARK   91  A    between atoms: _232  and  _233
REMARK   92  A    between atoms: _238  and  _239
REMARK   93  A    between atoms: _241  and  _243
REMARK   94  A    between atoms: _243  and  _244
REMARK   95  A    between atoms: _243  and  _246
REMARK   96  A    between atoms: _246  and  _247
REMARK   97  A    between atoms: _247  and  _248
REMARK   98  A    between atoms: _248  and  _249
REMARK   99  A    between atoms: _258  and  _260
REMARK  100  A    between atoms: _260  and  _261
REMARK  101  A    between atoms: _260  and  _263
REMARK  102  A    between atoms: _263  and  _264
REMARK  103  A    between atoms: _264  and  _265
REMARK  104  A    between atoms: _267  and  _269
REMARK  105  A    between atoms: _269  and  _270
REMARK  106  A    between atoms: _269  and  _272
REMARK  107  A    between atoms: _272  and  _273
REMARK  108  A    between atoms: _279  and  _281
REMARK  109  A    between atoms: _281  and  _282
REMARK  110  A    between atoms: _281  and  _284
REMARK  111  A    between atoms: _287  and  _289
REMARK  112  A    between atoms: _289  and  _290
REMARK  113  A    between atoms: _289  and  _292
REMARK  114  A    between atoms: _292  and  _293
REMARK  115  A    between atoms: _293  and  _294
REMARK  116  A    between atoms: _294  and  _295
REMARK  117  A    between atoms: _304  and  _306
REMARK  118  A    between atoms: _306  and  _307
REMARK  119  A    between atoms: _306  and  _309
REMARK  120  A    between atoms: _309  and  _310
REMARK  121  A    between atoms: _315  and  _317
REMARK  122  A    between atoms: _317  and  _318
REMARK  123  A    between atoms: _317  and  _320
REMARK  124  A    between atoms: _320  and  _321
REMARK  125  A    between atoms: _326  and  _327
REMARK  126  A    between atoms: _329  and  _331
REMARK  127  A    between atoms: _331  and  _332
REMARK  128  A    between atoms: _331  and  _334
REMARK  129  A    between atoms: _334  and  _335
REMARK  130  A    between atoms: _338  and  _340
REMARK  131  A    between atoms: _340  and  _341
REMARK  132  A    between atoms: _340  and  _343
REMARK  133  A    between atoms: _343  and  _344
REMARK  134  A    between atoms: _344  and  _345
REMARK  135  A    between atoms: _345  and  _346
REMARK  136  A    between atoms: _355  and  _357
REMARK  137  A    between atoms: _357  and  _358
REMARK  138  A    between atoms: _357  and  _360
REMARK  139  A    between atoms: _360  and  _361
REMARK  140  A    between atoms: _366  and  _367
REMARK  141  A    between atoms: _369  and  _371
REMARK  142  A    between atoms: _371  and  _372
REMARK  143  A    between atoms: _371  and  _374
REMARK  144  A    between atoms: _374  and  _375
REMARK  145  A    between atoms: _377  and  _379
REMARK  146  A    between atoms: _379  and  _380
REMARK  147  A    between atoms: _379  and  _382
REMARK  148  A    between atoms: _382  and  _383
REMARK                            x       y       z     vdW  Elec       q    Type
REMARK                         _______ _______ _______ _____ _____    ______ ____
ROOT
ATOM      1  CA  ILE A   1      49.490  79.308 -11.118  0.00  0.00    +0.133 C 
ENDROOT
BRANCH   1   2
ATOM      2  N   ILE A   1      50.307  79.465 -12.318  0.00  0.00    -0.239 NA
ATOM      3  H   ILE A   1      49.834  79.480 -13.244  0.00  0.00    +0.142 HD
ENDBRANCH   1   2
BRANCH   1   4
ATOM      4  C   ILE A   1      49.941  78.061 -10.342  0.00  0.00    +0.224 C 
ATOM      5  O   ILE A   1      49.828  78.044  -9.119  0.00  0.00    -0.287 OA
ENDBRANCH   1   4
BRANCH   1   6
ATOM      6  CB  ILE A   1      48.000  79.178 -11.508  0.00  0.00    +0.023 C 
ATOM      7  CG2 ILE A   1      47.132  78.739 -10.330  0.00  0.00    +0.002 C 
BRANCH   6   8
ATOM      8  CG1 ILE A   1      47.477  80.491 -12.098  0.00  0.00    +0.002 C 
ATOM      9  CD1 ILE A   1      46.132  80.309 -12.880  0.00  0.00    +0.000 C 
ENDBRANCH   6   8
ENDBRANCH   1   6
TORSDOF 4
REMARK  Name = ../refined-set-2016/1tog/1tog_pocket.pdb
REMARK  148 active torsions:
REMARK  status: ('A' for Active; 'I' for Inactive)
REMARK    1  A    between atoms: _1  and  _3
REMARK    2  A    between atoms: _3  and  _4
REMARK    3  A    between atoms: _3  and  _6
REMARK    4  A    between atoms: _6  and  _7
REMARK    5  A    between atoms: _11  and  _12
REMARK    6  A    between atoms: _17  and  _19
REMARK    7  A    between atoms: _19  and  _20
REMARK    8  A    between atoms: _19  and  _22
REMARK    9  A    between atoms: _22  and  _23
REMARK   10  A    between atoms: _26  and  _28
REMARK   11  A    between atoms: _28  and  _29
REMARK   12  A    between atoms: _28  and  _31
REMARK   13  A    between atoms: _31  and  _32
REMARK   14  A    between atoms: _35  and  _37
REMARK   15  A    between atoms: _37  and  _38
REMARK   16  A    between atoms: _40  and  _42
REMARK   17  A    between atoms: _42  and  _43
REMARK   18  A    between atoms: _42  and  _45
REMARK   19  A    between atoms: _45  and  _46
REMARK   20  A    between atoms: _49  and  _51
REMARK   21  A    between atoms: _51  and  _52
REMARK   22  A    between atoms: _51  and  _54
REMARK   23  A    between atoms: _54  and  _55
REMARK   24  A    between atoms: _58  and  _60
REMARK   25  A    between atoms: _60  and  _61
REMARK   26  A    between atoms: _63  and  _65
REMARK   27  A    between atoms: _65  and  _66
REMARK   28  A    between atoms: _65  and  _68
REMARK   29  A    between atoms: _68  and  _69
REMARK   30  A    between atoms: _72  and  _74
REMARK   31  A    between atoms: _74  and  _75
REMARK   32  A    between atoms: _77  and  _79
REMARK   33  A    between atoms: _79  and  _80
REMARK   34  A    between atoms: _79  and  _82
REMARK   35  A    between atoms: _85  and  _87
REMARK   36  A    between atoms: _87  and  _88
REMARK   37  A    between atoms: _90  and  _92
REMARK   38  A    between atoms: _92  and  _93
REMARK   39  A    between atoms: _92  and  _95
REMARK   40  A    between atoms: _95  and  _96
REMARK   41  A    between atoms: _98  and  _100
REMARK   42  A    between atoms: _100  and  _101
REMARK   43  A    between atoms: _103  and  _105
REMARK   44  A    between atoms: _105  and  _106
REMARK   45  A    between atoms: _105  and  _108
REMARK   46  A    between atoms: _108  and  _109
REMARK   47  A    between atoms: _112  and  _114
REMARK   48  A    between atoms: _114  and  _115
REMARK   49  A    between atoms: _114  and  _117
REMARK   50  A    between atoms: _117  and  _118
REMARK   51  A    between atoms: _129  and  _130
REMARK   52  A    between atoms: _135  and  _137
REMARK   53  A    between atoms: _137  and  _138
REMARK   54  A    between atoms: _137  and  _140
REMARK   55  A    between atoms: _140  and  _141
REMARK   56  A    between atoms: _146  and  _148
REMARK   57  A    between atoms: _148  and  _149
REMARK   58  A    between atoms: _148  and  _151
REMARK   59  A    between atoms: _151  and  _152
REMARK   60  A    between atoms: _158  and  _159
REMARK   61  A    between atoms: _164  and  _166
REMARK   62  A    between atoms: _166  and  _167
REMARK   63  A    between atoms: _170  and  _172
REMARK   64  A    between atoms: _172  and  _173
REMARK   65  A    between atoms: _172  and  _175
REMARK   66  A    between atoms: _175  and  _176
REMARK   67  A    between atoms: _181  and  _182
REMARK   68  A    between atoms: _184  and  _186
REMARK   69  A    between atoms: _186  and  _187
REMARK   70  A    between atoms: _186  and  _189
REMARK   71  A    between atoms: _189  and  _190
REMARK   72  A    between atoms: _192  and  _194
REMARK   73  A    between atoms: _194  and  _195
REMARK   74  A    between atoms: _194  and  _197
REMARK   75  A    between atoms: _197  and  _198
REMARK   76  A    between atoms: _205  and  _206
REMARK   77  A    between atoms: _206  and  _222
REMARK   78  A    between atoms: _207  and  _209
REMARK   79  A    between atoms: _209  and  _210
REMARK   80  A    between atoms: _210  and  _211
REMARK   81  A    between atoms: _215  and  _217
REMARK   82  A    between atoms: _217  and  _218
REMARK   83  A    between atoms: _217  and  _225
REMARK   84  A    between atoms: _218  and  _219
REMARK   85  A    between atoms: _219  and  _220
REMARK   86  A    between atoms: _220  and  _221
REMARK   87  A    between atoms: _221  and  _222
REMARK   88  A    between atoms: _227  and  _229
REMARK   89  A    between atoms: _229  and  _230
REMARK   90  A    between atoms: _229  and  _232
REMARK   91  A    between atoms: _232  and  _233
REMARK   92  A    between atoms: _238  and  _239
REMARK   93  A    between atoms: _241  and  _243
REMARK   94  A    between atoms: _243  and  _244
REMARK   95  A    between atoms: _243  and  _246
REMARK   96  A    between atoms: _246  and  _247
REMARK   97  A    between atoms: _247  and  _248
REMARK   98  A    between atoms: _248  and  _249
REMARK   99  A    between atoms: _258  and  _260
REMARK  100  A    between atoms: _260  and  _261
REMARK  101  A    between atoms: _260  and  _263
REMARK  102  A    between atoms: _263  and  _264
REMARK  103  A    between atoms: _264  and  _265
REMARK  104  A    between atoms: _267  and  _269
REMARK  105  A    between atoms: _269  and  _270
REMARK  106  A    between atoms: _269  and  _272
REMARK  107  A    between atoms: _272  and  _273
REMARK  108  A    between atoms: _279  and  _281
REMARK  109  A    between atoms: _281  and  _282
REMARK  110  A    between atoms: _281  and  _284
REMARK  111  A    between atoms: _287  and  _289
REMARK  112  A    between atoms: _289  and  _290
REMARK  113  A    between atoms: _289  and  _292
REMARK  114  A    between atoms: _292  and  _293
REMARK  115  A    between atoms: _293  and  _294
REMARK  116  A    between atoms: _294  and  _295
REMARK  117  A    between atoms: _304  and  _306
REMARK  118  A    between atoms: _306  and  _307
REMARK  119  A    between atoms: _306  and  _309
REMARK  120  A    between atoms: _309  and  _310
REMARK  121  A    between atoms: _315  and  _317
REMARK  122  A    between atoms: _317  and  _318
REMARK  123  A    between atoms: _317  and  _320
REMARK  124  A    between atoms: _320  and  _321
REMARK  125  A    between atoms: _326  and  _327
REMARK  126  A    between atoms: _329  and  _331
REMARK  127  A    between atoms: _331  and  _332
REMARK  128  A    between atoms: _331  and  _334
REMARK  129  A    between atoms: _334  and  _335
REMARK  130  A    between atoms: _338  and  _340
REMARK  131  A    between atoms: _340  and  _341
REMARK  132  A    between atoms: _340  and  _343
REMARK  133  A    between atoms: _343  and  _344
REMARK  134  A    between atoms: _344  and  _345
REMARK  135  A    between atoms: _345  and  _346
REMARK  136  A    between atoms: _355  and  _357
REMARK  137  A    between atoms: _357  and  _358
REMARK  138  A    between atoms: _357  and  _360
REMARK  139  A    between atoms: _360  and  _361
REMARK  140  A    between atoms: _366  and  _367
REMARK  141  A    between atoms: _369  and  _371
REMARK  142  A    between atoms: _371  and  _372
REMARK  143  A    between atoms: _371  and  _374
REMARK  144  A    between atoms: _374  and  _375
REMARK  145  A    between atoms: _377  and  _379
REMARK  146  A    between atoms: _379  and  _380
REMARK  147  A    between atoms: _379  and  _382
REMARK  148  A    between atoms: _382  and  _383
REMARK                            x       y       z     vdW  Elec       q    Type
REMARK                         _______ _______ _______ _____ _____    ______ ____
ROOT
ATOM      1  NE  ARG A   1      40.287  84.535 -11.658  0.00  0.00    -0.265 N 
ATOM      2  HE  ARG A   1      40.860  85.372 -11.427  0.00  0.00    +0.259 HD
ATOM      3  CZ  ARG A   1      39.218  84.717 -12.444  0.00  0.00    +0.342 C 
ATOM      4  NH2 ARG A   1      38.453  83.682 -12.795  0.00  0.00    -0.292 N 
ATOM      5 HH21 ARG A   1      38.685  82.726 -12.458  0.00  0.00    +0.255 HD
ATOM      6 HH22 ARG A   1      37.624  83.831 -13.406  0.00  0.00    +0.255 HD
ATOM      7  NH1 ARG A   1      38.915  85.943 -12.870  0.00  0.00    -0.292 N 
ATOM      8 HH11 ARG A   1      39.507  86.751 -12.592  0.00  0.00    +0.255 HD
ATOM      9 HH12 ARG A   1      38.086  86.091 -13.481  0.00  0.00    +0.255 HD
ENDROOT
BRANCH   1  10
ATOM     10  CD  ARG A   1      40.712  83.250 -11.098  0.00  0.00    +0.174 C 
BRANCH  10  11
ATOM     11  CG  ARG A   1      41.979  83.406 -10.241  0.00  0.00    +0.045 C 
BRANCH  11  12
ATOM     12  CB  ARG A   1      42.576  82.066  -9.778  0.00  0.00    +0.029 C 
BRANCH  12  13
ATOM     13  CA  ARG A   1      43.399  82.151  -8.484  0.00  0.00    +0.133 C 
BRANCH  13  14
ATOM     14  N   ARG A   1      43.650  80.818  -7.934  0.00  0.00    -0.239 NA
ATOM     15  H   ARG A   1      43.336  79.983  -8.468  0.00  0.00    +0.142 HD
ENDBRANCH  13  14
BRANCH  13  16
ATOM     16  C   ARG A   1      42.729  83.100  -7.472  0.00  0.00    +0.224 C 
ATOM     17  O   ARG A   1      43.148  84.240  -7.333  0.00  0.00    -0.287 OA
ENDBRANCH  13  16
ENDBRANCH  12  13
ENDBRANCH  11  12
ENDBRANCH  10  11
ENDBRANCH   1  10
TORSDOF 6
REMARK  Name = ../refined-set-2016/1tog/1tog_pocket.pdb
REMARK  148 active torsions:
REMARK  status: ('A' for Active; 'I' for Inactive)
REMARK    1  A    between atoms: _1  and  _3
REMARK    2  A    between atoms: _3  and  _4
REMARK    3  A    between atoms: _3  and  _6
REMARK    4  A    between atoms: _6  and  _7
REMARK    5  A    between atoms: _11  and  _12
REMARK    6  A    between atoms: _17  and  _19
REMARK    7  A    between atoms: _19  and  _20
REMARK    8  A    between atoms: _19  and  _22
REMARK    9  A    between atoms: _22  and  _23
REMARK   10  A    between atoms: _26  and  _28
REMARK   11  A    between atoms: _28  and  _29
REMARK   12  A    between atoms: _28  and  _31
REMARK   13  A    between atoms: _31  and  _32
REMARK   14  A    between atoms: _35  and  _37
REMARK   15  A    between atoms: _37  and  _38
REMARK   16  A    between atoms: _40  and  _42
REMARK   17  A    between atoms: _42  and  _43
REMARK   18  A    between atoms: _42  and  _45
REMARK   19  A    between atoms: _45  and  _46
REMARK   20  A    between atoms: _49  and  _51
REMARK   21  A    between atoms: _51  and  _52
REMARK   22  A    between atoms: _51  and  _54
REMARK   23  A    between atoms: _54  and  _55
REMARK   24  A    between atoms: _58  and  _60
REMARK   25  A    between atoms: _60  and  _61
REMARK   26  A    between atoms: _63  and  _65
REMARK   27  A    between atoms: _65  and  _66
REMARK   28  A    between atoms: _65  and  _68
REMARK   29  A    between atoms: _68  and  _69
REMARK   30  A    between atoms: _72  and  _74
REMARK   31  A    between atoms: _74  and  _75
REMARK   32  A    between atoms: _77  and  _79
REMARK   33  A    between atoms: _79  and  _80
REMARK   34  A    between atoms: _79  and  _82
REMARK   35  A    between atoms: _85  and  _87
REMARK   36  A    between atoms: _87  and  _88
REMARK   37  A    between atoms: _90  and  _92
REMARK   38  A    between atoms: _92  and  _93
REMARK   39  A    between atoms: _92  and  _95
REMARK   40  A    between atoms: _95  and  _96
REMARK   41  A    between atoms: _98  and  _100
REMARK   42  A    between atoms: _100  and  _101
REMARK   43  A    between atoms: _103  and  _105
REMARK   44  A    between atoms: _105  and  _106
REMARK   45  A    between atoms: _105  and  _108
REMARK   46  A    between atoms: _108  and  _109
REMARK   47  A    between atoms: _112  and  _114
REMARK   48  A    between atoms: _114  and  _115
REMARK   49  A    between atoms: _114  and  _117
REMARK   50  A    between atoms: _117  and  _118
REMARK   51  A    between atoms: _129  and  _130
REMARK   52  A    between atoms: _135  and  _137
REMARK   53  A    between atoms: _137  and  _138
REMARK   54  A    between atoms: _137  and  _140
REMARK   55  A    between atoms: _140  and  _141
REMARK   56  A    between atoms: _146  and  _148
REMARK   57  A    between atoms: _148  and  _149
REMARK   58  A    between atoms: _148  and  _151
REMARK   59  A    between atoms: _151  and  _152
REMARK   60  A    between atoms: _158  and  _159
REMARK   61  A    between atoms: _164  and  _166
REMARK   62  A    between atoms: _166  and  _167
REMARK   63  A    between atoms: _170  and  _172
REMARK   64  A    between atoms: _172  and  _173
REMARK   65  A    between atoms: _172  and  _175
REMARK   66  A    between atoms: _175  and  _176
REMARK   67  A    between atoms: _181  and  _182
REMARK   68  A    between atoms: _184  and  _186
REMARK   69  A    between atoms: _186  and  _187
REMARK   70  A    between atoms: _186  and  _189
REMARK   71  A    between atoms: _189  and  _190
REMARK   72  A    between atoms: _192  and  _194
REMARK   73  A    between atoms: _194  and  _195
REMARK   74  A    between atoms: _194  and  _197
REMARK   75  A    between atoms: _197  and  _198
REMARK   76  A    between atoms: _205  and  _206
REMARK   77  A    between atoms: _206  and  _222
REMARK   78  A    between atoms: _207  and  _209
REMARK   79  A    between atoms: _209  and  _210
REMARK   80  A    between atoms: _210  and  _211
REMARK   81  A    between atoms: _215  and  _217
REMARK   82  A    between atoms: _217  and  _218
REMARK   83  A    between atoms: _217  and  _225
REMARK   84  A    between atoms: _218  and  _219
REMARK   85  A    between atoms: _219  and  _220
REMARK   86  A    between atoms: _220  and  _221
REMARK   87  A    between atoms: _221  and  _222
REMARK   88  A    between atoms: _227  and  _229
REMARK   89  A    between atoms: _229  and  _230
REMARK   90  A    between atoms: _229  and  _232
REMARK   91  A    between atoms: _232  and  _233
REMARK   92  A    between atoms: _238  and  _239
REMARK   93  A    between atoms: _241  and  _243
REMARK   94  A    between atoms: _243  and  _244
REMARK   95  A    between atoms: _243  and  _246
REMARK   96  A    between atoms: _246  and  _247
REMARK   97  A    between atoms: _247  and  _248
REMARK   98  A    between atoms: _248  and  _249
REMARK   99  A    between atoms: _258  and  _260
REMARK  100  A    between atoms: _260  and  _261
REMARK  101  A    between atoms: _260  and  _263
REMARK  102  A    between atoms: _263  and  _264
REMARK  103  A    between atoms: _264  and  _265
REMARK  104  A    between atoms: _267  and  _269
REMARK  105  A    between atoms: _269  and  _270
REMARK  106  A    between atoms: _269  and  _272
REMARK  107  A    between atoms: _272  and  _273
REMARK  108  A    between atoms: _279  and  _281
REMARK  109  A    between atoms: _281  and  _282
REMARK  110  A    between atoms: _281  and  _284
REMARK  111  A    between atoms: _287  and  _289
REMARK  112  A    between atoms: _289  and  _290
REMARK  113  A    between atoms: _289  and  _292
REMARK  114  A    between atoms: _292  and  _293
REMARK  115  A    between atoms: _293  and  _294
REMARK  116  A    between atoms: _294  and  _295
REMARK  117  A    between atoms: _304  and  _306
REMARK  118  A    between atoms: _306  and  _307
REMARK  119  A    between atoms: _306  and  _309
REMARK  120  A    between atoms: _309  and  _310
REMARK  121  A    between atoms: _315  and  _317
REMARK  122  A    between atoms: _317  and  _318
REMARK  123  A    between atoms: _317  and  _320
REMARK  124  A    between atoms: _320  and  _321
REMARK  125  A    between atoms: _326  and  _327
REMARK  126  A    between atoms: _329  and  _331
REMARK  127  A    between atoms: _331  and  _332
REMARK  128  A    between atoms: _331  and  _334
REMARK  129  A    between atoms: _334  and  _335
REMARK  130  A    between atoms: _338  and  _340
REMARK  131  A    between atoms: _340  and  _341
REMARK  132  A    between atoms: _340  and  _343
REMARK  133  A    between atoms: _343  and  _344
REMARK  134  A    between atoms: _344  and  _345
REMARK  135  A    between atoms: _345  and  _346
REMARK  136  A    between atoms: _355  and  _357
REMARK  137  A    between atoms: _357  and  _358
REMARK  138  A    between atoms: _357  and  _360
REMARK  139  A    between atoms: _360  and  _361
REMARK  140  A    between atoms: _366  and  _367
REMARK  141  A    between atoms: _369  and  _371
REMARK  142  A    between atoms: _371  and  _372
REMARK  143  A    between atoms: _371  and  _374
REMARK  144  A    between atoms: _374  and  _375
REMARK  145  A    between atoms: _377  and  _379
REMARK  146  A    between atoms: _379  and  _380
REMARK  147  A    between atoms: _379  and  _382
REMARK  148  A    between atoms: _382  and  _383
REMARK                            x       y       z     vdW  Elec       q    Type
REMARK                         _______ _______ _______ _____ _____    ______ ____
ROOT
ATOM      1  C   TYR A   1      47.728  84.105  -4.943  0.00  0.00    +0.239 C 
ATOM      2  O   TYR A   1      48.771  84.721  -5.161  0.00  0.00    -0.274 OA
ATOM      3  N   SER A   2      46.973  83.553  -5.895  0.00  0.00    -0.295 N 
ATOM      4  H   SER A   2      46.201  82.926  -5.591  0.00  0.00    +0.150 HD
ENDROOT
BRANCH   1   5
ATOM      5  CA  TYR A   1      47.215  83.919  -3.520  0.00  0.00    +0.149 C 
BRANCH   5   6
ATOM      6  N   TYR A   1      45.955  83.162  -3.569  0.00  0.00    -0.238 NA
ATOM      7  H   TYR A   1      45.957  82.160  -3.849  0.00  0.00    +0.142 HD
ENDBRANCH   5   6
BRANCH   5   8
ATOM      8  CB  TYR A   1      48.269  83.236  -2.617  0.00  0.00    +0.053 C 
BRANCH   8   9
ATOM      9  CG  TYR A   1      48.455  81.770  -2.971  0.00  0.00    -0.020 A 
ATOM     10  CD2 TYR A   1      47.682  80.778  -2.336  0.00  0.00    -0.001 A 
ATOM     11  CE2 TYR A   1      47.786  79.468  -2.667  0.00  0.00    +0.036 A 
ATOM     12  CZ  TYR A   1      48.664  79.094  -3.682  0.00  0.00    +0.134 A 
ATOM     13  CE1 TYR A   1      49.454  80.043  -4.341  0.00  0.00    +0.036 A 
ATOM     14  CD1 TYR A   1      49.332  81.389  -3.978  0.00  0.00    -0.001 A 
BRANCH  12  15
ATOM     15  OH  TYR A   1      48.735  77.773  -4.030  0.00  0.00    -0.506 OA
ATOM     16  HH  TYR A   1      49.395  77.660  -4.759  0.00  0.00    +0.292 HD
ENDBRANCH  12  15
ENDBRANCH   8   9
ENDBRANCH   5   8
ENDBRANCH   1   5
BRANCH   3  17
ATOM     17  CA  SER A   2      47.147  83.762  -7.347  0.00  0.00    +0.178 C 
BRANCH  17  18
ATOM     18  C   SER A   2      48.262  82.892  -7.971  0.00  0.00    +0.243 C 
ATOM     19  N   SER A   3      49.498  83.020  -7.496  0.00  0.00    -0.296 N 
ATOM     20  H   SER A   3      49.718  83.776  -6.817  0.00  0.00    +0.150 HD
ATOM     21  O   SER A   2      48.014  82.119  -8.883  0.00  0.00    -0.273 OA
BRANCH  19  22
ATOM     22  CA  SER A   3      50.541  82.102  -7.926  0.00  0.00    +0.166 C 
BRANCH  22  23
ATOM     23  CB  SER A   3      51.518  81.994  -6.766  0.00  0.00    +0.229 C 
ATOM     24  OG  SER A   3      51.554  82.881  -5.899  0.00  0.00    -0.286 OA
ENDBRANCH  22  23
BRANCH  22  25
ATOM     25  C   SER A   3      51.220  82.586  -9.233  0.00  0.00    +0.165 C 
BRANCH  25  26
ATOM     26  O   SER A   3      51.756  83.887  -9.074  0.00  0.00    -0.380 OA
ATOM     27  H   SER A   3      51.028  84.516  -8.842  0.00  0.00    +0.211 HD
ENDBRANCH  25  26
ENDBRANCH  22  25
ENDBRANCH  19  22
ENDBRANCH  17  18
BRANCH  17  28
ATOM     28  CB  SER A   2      47.335  85.252  -7.663  0.00  0.00    +0.166 C 
BRANCH  28  29
ATOM     29  OG  SER A   2      47.696  85.434  -9.011  0.00  0.00    -0.380 OA
ATOM     30  H   SER A   2      46.983  85.070  -9.594  0.00  0.00    +0.211 HD
ENDBRANCH  28  29
ENDBRANCH  17  28
ENDBRANCH   3  17
TORSDOF 13
REMARK  Name = ../refined-set-2016/1tog/1tog_pocket.pdb
REMARK  148 active torsions:
REMARK  status: ('A' for Active; 'I' for Inactive)
REMARK    1  A    between atoms: _1  and  _3
REMARK    2  A    between atoms: _3  and  _4
REMARK    3  A    between atoms: _3  and  _6
REMARK    4  A    between atoms: _6  and  _7
REMARK    5  A    between atoms: _11  and  _12
REMARK    6  A    between atoms: _17  and  _19
REMARK    7  A    between atoms: _19  and  _20
REMARK    8  A    between atoms: _19  and  _22
REMARK    9  A    between atoms: _22  and  _23
REMARK   10  A    between atoms: _26  and  _28
REMARK   11  A    between atoms: _28  and  _29
REMARK   12  A    between atoms: _28  and  _31
REMARK   13  A    between atoms: _31  and  _32
REMARK   14  A    between atoms: _35  and  _37
REMARK   15  A    between atoms: _37  and  _38
REMARK   16  A    between atoms: _40  and  _42
REMARK   17  A    between atoms: _42  and  _43
REMARK   18  A    between atoms: _42  and  _45
REMARK   19  A    between atoms: _45  and  _46
REMARK   20  A    between atoms: _49  and  _51
REMARK   21  A    between atoms: _51  and  _52
REMARK   22  A    between atoms: _51  and  _54
REMARK   23  A    between atoms: _54  and  _55
REMARK   24  A    between atoms: _58  and  _60
REMARK   25  A    between atoms: _60  and  _61
REMARK   26  A    between atoms: _63  and  _65
REMARK   27  A    between atoms: _65  and  _66
REMARK   28  A    between atoms: _65  and  _68
REMARK   29  A    between atoms: _68  and  _69
REMARK   30  A    between atoms: _72  and  _74
REMARK   31  A    between atoms: _74  and  _75
REMARK   32  A    between atoms: _77  and  _79
REMARK   33  A    between atoms: _79  and  _80
REMARK   34  A    between atoms: _79  and  _82
REMARK   35  A    between atoms: _85  and  _87
REMARK   36  A    between atoms: _87  and  _88
REMARK   37  A    between atoms: _90  and  _92
REMARK   38  A    between atoms: _92  and  _93
REMARK   39  A    between atoms: _92  and  _95
REMARK   40  A    between atoms: _95  and  _96
REMARK   41  A    between atoms: _98  and  _100
REMARK   42  A    between atoms: _100  and  _101
REMARK   43  A    between atoms: _103  and  _105
REMARK   44  A    between atoms: _105  and  _106
REMARK   45  A    between atoms: _105  and  _108
REMARK   46  A    between atoms: _108  and  _109
REMARK   47  A    between atoms: _112  and  _114
REMARK   48  A    between atoms: _114  and  _115
REMARK   49  A    between atoms: _114  and  _117
REMARK   50  A    between atoms: _117  and  _118
REMARK   51  A    between atoms: _129  and  _130
REMARK   52  A    between atoms: _135  and  _137
REMARK   53  A    between atoms: _137  and  _138
REMARK   54  A    between atoms: _137  and  _140
REMARK   55  A    between atoms: _140  and  _141
REMARK   56  A    between atoms: _146  and  _148
REMARK   57  A    between atoms: _148  and  _149
REMARK   58  A    between atoms: _148  and  _151
REMARK   59  A    between atoms: _151  and  _152
REMARK   60  A    between atoms: _158  and  _159
REMARK   61  A    between atoms: _164  and  _166
REMARK   62  A    between atoms: _166  and  _167
REMARK   63  A    between atoms: _170  and  _172
REMARK   64  A    between atoms: _172  and  _173
REMARK   65  A    between atoms: _172  and  _175
REMARK   66  A    between atoms: _175  and  _176
REMARK   67  A    between atoms: _181  and  _182
REMARK   68  A    between atoms: _184  and  _186
REMARK   69  A    between atoms: _186  and  _187
REMARK   70  A    between atoms: _186  and  _189
REMARK   71  A    between atoms: _189  and  _190
REMARK   72  A    between atoms: _192  and  _194
REMARK   73  A    between atoms: _194  and  _195
REMARK   74  A    between atoms: _194  and  _197
REMARK   75  A    between atoms: _197  and  _198
REMARK   76  A    between atoms: _205  and  _206
REMARK   77  A    between atoms: _206  and  _222
REMARK   78  A    between atoms: _207  and  _209
REMARK   79  A    between atoms: _209  and  _210
REMARK   80  A    between atoms: _210  and  _211
REMARK   81  A    between atoms: _215  and  _217
REMARK   82  A    between atoms: _217  and  _218
REMARK   83  A    between atoms: _217  and  _225
REMARK   84  A    between atoms: _218  and  _219
REMARK   85  A    between atoms: _219  and  _220
REMARK   86  A    between atoms: _220  and  _221
REMARK   87  A    between atoms: _221  and  _222
REMARK   88  A    between atoms: _227  and  _229
REMARK   89  A    between atoms: _229  and  _230
REMARK   90  A    between atoms: _229  and  _232
REMARK   91  A    between atoms: _232  and  _233
REMARK   92  A    between atoms: _238  and  _239
REMARK   93  A    between atoms: _241  and  _243
REMARK   94  A    between atoms: _243  and  _244
REMARK   95  A    between atoms: _243  and  _246
REMARK   96  A    between atoms: _246  and  _247
REMARK   97  A    between atoms: _247  and  _248
REMARK   98  A    between atoms: _248  and  _249
REMARK   99  A    between atoms: _258  and  _260
REMARK  100  A    between atoms: _260  and  _261
REMARK  101  A    between atoms: _260  and  _263
REMARK  102  A    between atoms: _263  and  _264
REMARK  103  A    between atoms: _264  and  _265
REMARK  104  A    between atoms: _267  and  _269
REMARK  105  A    between atoms: _269  and  _270
REMARK  106  A    between atoms: _269  and  _272
REMARK  107  A    between atoms: _272  and  _273
REMARK  108  A    between atoms: _279  and  _281
REMARK  109  A    between atoms: _281  and  _282
REMARK  110  A    between atoms: _281  and  _284
REMARK  111  A    between atoms: _287  and  _289
REMARK  112  A    between atoms: _289  and  _290
REMARK  113  A    between atoms: _289  and  _292
REMARK  114  A    between atoms: _292  and  _293
REMARK  115  A    between atoms: _293  and  _294
REMARK  116  A    between atoms: _294  and  _295
REMARK  117  A    between atoms: _304  and  _306
REMARK  118  A    between atoms: _306  and  _307
REMARK  119  A    between atoms: _306  and  _309
REMARK  120  A    between atoms: _309  and  _310
REMARK  121  A    between atoms: _315  and  _317
REMARK  122  A    between atoms: _317  and  _318
REMARK  123  A    between atoms: _317  and  _320
REMARK  124  A    between atoms: _320  and  _321
REMARK  125  A    between atoms: _326  and  _327
REMARK  126  A    between atoms: _329  and  _331
REMARK  127  A    between atoms: _331  and  _332
REMARK  128  A    between atoms: _331  and  _334
REMARK  129  A    between atoms: _334  and  _335
REMARK  130  A    between atoms: _338  and  _340
REMARK  131  A    between atoms: _340  and  _341
REMARK  132  A    between atoms: _340  and  _343
REMARK  133  A    between atoms: _343  and  _344
REMARK  134  A    between atoms: _344  and  _345
REMARK  135  A    between atoms: _345  and  _346
REMARK  136  A    between atoms: _355  and  _357
REMARK  137  A    between atoms: _357  and  _358
REMARK  138  A    between atoms: _357  and  _360
REMARK  139  A    between atoms: _360  and  _361
REMARK  140  A    between atoms: _366  and  _367
REMARK  141  A    between atoms: _369  and  _371
REMARK  142  A    between atoms: _371  and  _372
REMARK  143  A    between atoms: _371  and  _374
REMARK  144  A    between atoms: _374  and  _375
REMARK  145  A    between atoms: _377  and  _379
REMARK  146  A    between atoms: _379  and  _380
REMARK  147  A    between atoms: _379  and  _382
REMARK  148  A    between atoms: _382  and  _383
REMARK                            x       y       z     vdW  Elec       q    Type
REMARK                         _______ _______ _______ _____ _____    ______ ____
ROOT
ATOM      1  O   HOH     1      40.918  94.236 -18.093  0.00  0.00    +0.000 OA
ENDROOT
TORSDOF 0
REMARK  Name = ../refined-set-2016/1tog/1tog_pocket.pdb
REMARK  148 active torsions:
REMARK  status: ('A' for Active; 'I' for Inactive)
REMARK    1  A    between atoms: _1  and  _3
REMARK    2  A    between atoms: _3  and  _4
REMARK    3  A    between atoms: _3  and  _6
REMARK    4  A    between atoms: _6  and  _7
REMARK    5  A    between atoms: _11  and  _12
REMARK    6  A    between atoms: _17  and  _19
REMARK    7  A    between atoms: _19  and  _20
REMARK    8  A    between atoms: _19  and  _22
REMARK    9  A    between atoms: _22  and  _23
REMARK   10  A    between atoms: _26  and  _28
REMARK   11  A    between atoms: _28  and  _29
REMARK   12  A    between atoms: _28  and  _31
REMARK   13  A    between atoms: _31  and  _32
REMARK   14  A    between atoms: _35  and  _37
REMARK   15  A    between atoms: _37  and  _38
REMARK   16  A    between atoms: _40  and  _42
REMARK   17  A    between atoms: _42  and  _43
REMARK   18  A    between atoms: _42  and  _45
REMARK   19  A    between atoms: _45  and  _46
REMARK   20  A    between atoms: _49  and  _51
REMARK   21  A    between atoms: _51  and  _52
REMARK   22  A    between atoms: _51  and  _54
REMARK   23  A    between atoms: _54  and  _55
REMARK   24  A    between atoms: _58  and  _60
REMARK   25  A    between atoms: _60  and  _61
REMARK   26  A    between atoms: _63  and  _65
REMARK   27  A    between atoms: _65  and  _66
REMARK   28  A    between atoms: _65  and  _68
REMARK   29  A    between atoms: _68  and  _69
REMARK   30  A    between atoms: _72  and  _74
REMARK   31  A    between atoms: _74  and  _75
REMARK   32  A    between atoms: _77  and  _79
REMARK   33  A    between atoms: _79  and  _80
REMARK   34  A    between atoms: _79  and  _82
REMARK   35  A    between atoms: _85  and  _87
REMARK   36  A    between atoms: _87  and  _88
REMARK   37  A    between atoms: _90  and  _92
REMARK   38  A    between atoms: _92  and  _93
REMARK   39  A    between atoms: _92  and  _95
REMARK   40  A    between atoms: _95  and  _96
REMARK   41  A    between atoms: _98  and  _100
REMARK   42  A    between atoms: _100  and  _101
REMARK   43  A    between atoms: _103  and  _105
REMARK   44  A    between atoms: _105  and  _106
REMARK   45  A    between atoms: _105  and  _108
REMARK   46  A    between atoms: _108  and  _109
REMARK   47  A    between atoms: _112  and  _114
REMARK   48  A    between atoms: _114  and  _115
REMARK   49  A    between atoms: _114  and  _117
REMARK   50  A    between atoms: _117  and  _118
REMARK   51  A    between atoms: _129  and  _130
REMARK   52  A    between atoms: _135  and  _137
REMARK   53  A    between atoms: _137  and  _138
REMARK   54  A    between atoms: _137  and  _140
REMARK   55  A    between atoms: _140  and  _141
REMARK   56  A    between atoms: _146  and  _148
REMARK   57  A    between atoms: _148  and  _149
REMARK   58  A    between atoms: _148  and  _151
REMARK   59  A    between atoms: _151  and  _152
REMARK   60  A    between atoms: _158  and  _159
REMARK   61  A    between atoms: _164  and  _166
REMARK   62  A    between atoms: _166  and  _167
REMARK   63  A    between atoms: _170  and  _172
REMARK   64  A    between atoms: _172  and  _173
REMARK   65  A    between atoms: _172  and  _175
REMARK   66  A    between atoms: _175  and  _176
REMARK   67  A    between atoms: _181  and  _182
REMARK   68  A    between atoms: _184  and  _186
REMARK   69  A    between atoms: _186  and  _187
REMARK   70  A    between atoms: _186  and  _189
REMARK   71  A    between atoms: _189  and  _190
REMARK   72  A    between atoms: _192  and  _194
REMARK   73  A    between atoms: _194  and  _195
REMARK   74  A    between atoms: _194  and  _197
REMARK   75  A    between atoms: _197  and  _198
REMARK   76  A    between atoms: _205  and  _206
REMARK   77  A    between atoms: _206  and  _222
REMARK   78  A    between atoms: _207  and  _209
REMARK   79  A    between atoms: _209  and  _210
REMARK   80  A    between atoms: _210  and  _211
REMARK   81  A    between atoms: _215  and  _217
REMARK   82  A    between atoms: _217  and  _218
REMARK   83  A    between atoms: _217  and  _225
REMARK   84  A    between atoms: _218  and  _219
REMARK   85  A    between atoms: _219  and  _220
REMARK   86  A    between atoms: _220  and  _221
REMARK   87  A    between atoms: _221  and  _222
REMARK   88  A    between atoms: _227  and  _229
REMARK   89  A    between atoms: _229  and  _230
REMARK   90  A    between atoms: _229  and  _232
REMARK   91  A    between atoms: _232  and  _233
REMARK   92  A    between atoms: _238  and  _239
REMARK   93  A    between atoms: _241  and  _243
REMARK   94  A    between atoms: _243  and  _244
REMARK   95  A    between atoms: _243  and  _246
REMARK   96  A    between atoms: _246  and  _247
REMARK   97  A    between atoms: _247  and  _248
REMARK   98  A    between atoms: _248  and  _249
REMARK   99  A    between atoms: _258  and  _260
REMARK  100  A    between atoms: _260  and  _261
REMARK  101  A    between atoms: _260  and  _263
REMARK  102  A    between atoms: _263  and  _264
REMARK  103  A    between atoms: _264  and  _265
REMARK  104  A    between atoms: _267  and  _269
REMARK  105  A    between atoms: _269  and  _270
REMARK  106  A    between atoms: _269  and  _272
REMARK  107  A    between atoms: _272  and  _273
REMARK  108  A    between atoms: _279  and  _281
REMARK  109  A    between atoms: _281  and  _282
REMARK  110  A    between atoms: _281  and  _284
REMARK  111  A    between atoms: _287  and  _289
REMARK  112  A    between atoms: _289  and  _290
REMARK  113  A    between atoms: _289  and  _292
REMARK  114  A    between atoms: _292  and  _293
REMARK  115  A    between atoms: _293  and  _294
REMARK  116  A    between atoms: _294  and  _295
REMARK  117  A    between atoms: _304  and  _306
REMARK  118  A    between atoms: _306  and  _307
REMARK  119  A    between atoms: _306  and  _309
REMARK  120  A    between atoms: _309  and  _310
REMARK  121  A    between atoms: _315  and  _317
REMARK  122  A    between atoms: _317  and  _318
REMARK  123  A    between atoms: _317  and  _320
REMARK  124  A    between atoms: _320  and  _321
REMARK  125  A    between atoms: _326  and  _327
REMARK  126  A    between atoms: _329  and  _331
REMARK  127  A    between atoms: _331  and  _332
REMARK  128  A    between atoms: _331  and  _334
REMARK  129  A    between atoms: _334  and  _335
REMARK  130  A    between atoms: _338  and  _340
REMARK  131  A    between atoms: _340  and  _341
REMARK  132  A    between atoms: _340  and  _343
REMARK  133  A    between atoms: _343  and  _344
REMARK  134  A    between atoms: _344  and  _345
REMARK  135  A    between atoms: _345  and  _346
REMARK  136  A    between atoms: _355  and  _357
REMARK  137  A    between atoms: _357  and  _358
REMARK  138  A    between atoms: _357  and  _360
REMARK  139  A    between atoms: _360  and  _361
REMARK  140  A    between atoms: _366  and  _367
REMARK  141  A    between atoms: _369  and  _371
REMARK  142  A    between atoms: _371  and  _372
REMARK  143  A    between atoms: _371  and  _374
REMARK  144  A    between atoms: _374  and  _375
REMARK  145  A    between atoms: _377  and  _379
REMARK  146  A    between atoms: _379  and  _380
REMARK  147  A    between atoms: _379  and  _382
REMARK  148  A    between atoms: _382  and  _383
REMARK                            x       y       z     vdW  Elec       q    Type
REMARK                         _______ _______ _______ _____ _____    ______ ____
ROOT
ATOM      1  O   HOH     1      45.334  99.374  -9.897  0.00  0.00    +0.000 OA
ENDROOT
TORSDOF 0
REMARK  Name = ../refined-set-2016/1tog/1tog_pocket.pdb
REMARK  148 active torsions:
REMARK  status: ('A' for Active; 'I' for Inactive)
REMARK    1  A    between atoms: _1  and  _3
REMARK    2  A    between atoms: _3  and  _4
REMARK    3  A    between atoms: _3  and  _6
REMARK    4  A    between atoms: _6  and  _7
REMARK    5  A    between atoms: _11  and  _12
REMARK    6  A    between atoms: _17  and  _19
REMARK    7  A    between atoms: _19  and  _20
REMARK    8  A    between atoms: _19  and  _22
REMARK    9  A    between atoms: _22  and  _23
REMARK   10  A    between atoms: _26  and  _28
REMARK   11  A    between atoms: _28  and  _29
REMARK   12  A    between atoms: _28  and  _31
REMARK   13  A    between atoms: _31  and  _32
REMARK   14  A    between atoms: _35  and  _37
REMARK   15  A    between atoms: _37  and  _38
REMARK   16  A    between atoms: _40  and  _42
REMARK   17  A    between atoms: _42  and  _43
REMARK   18  A    between atoms: _42  and  _45
REMARK   19  A    between atoms: _45  and  _46
REMARK   20  A    between atoms: _49  and  _51
REMARK   21  A    between atoms: _51  and  _52
REMARK   22  A    between atoms: _51  and  _54
REMARK   23  A    between atoms: _54  and  _55
REMARK   24  A    between atoms: _58  and  _60
REMARK   25  A    between atoms: _60  and  _61
REMARK   26  A    between atoms: _63  and  _65
REMARK   27  A    between atoms: _65  and  _66
REMARK   28  A    between atoms: _65  and  _68
REMARK   29  A    between atoms: _68  and  _69
REMARK   30  A    between atoms: _72  and  _74
REMARK   31  A    between atoms: _74  and  _75
REMARK   32  A    between atoms: _77  and  _79
REMARK   33  A    between atoms: _79  and  _80
REMARK   34  A    between atoms: _79  and  _82
REMARK   35  A    between atoms: _85  and  _87
REMARK   36  A    between atoms: _87  and  _88
REMARK   37  A    between atoms: _90  and  _92
REMARK   38  A    between atoms: _92  and  _93
REMARK   39  A    between atoms: _92  and  _95
REMARK   40  A    between atoms: _95  and  _96
REMARK   41  A    between atoms: _98  and  _100
REMARK   42  A    between atoms: _100  and  _101
REMARK   43  A    between atoms: _103  and  _105
REMARK   44  A    between atoms: _105  and  _106
REMARK   45  A    between atoms: _105  and  _108
REMARK   46  A    between atoms: _108  and  _109
REMARK   47  A    between atoms: _112  and  _114
REMARK   48  A    between atoms: _114  and  _115
REMARK   49  A    between atoms: _114  and  _117
REMARK   50  A    between atoms: _117  and  _118
REMARK   51  A    between atoms: _129  and  _130
REMARK   52  A    between atoms: _135  and  _137
REMARK   53  A    between atoms: _137  and  _138
REMARK   54  A    between atoms: _137  and  _140
REMARK   55  A    between atoms: _140  and  _141
REMARK   56  A    between atoms: _146  and  _148
REMARK   57  A    between atoms: _148  and  _149
REMARK   58  A    between atoms: _148  and  _151
REMARK   59  A    between atoms: _151  and  _152
REMARK   60  A    between atoms: _158  and  _159
REMARK   61  A    between atoms: _164  and  _166
REMARK   62  A    between atoms: _166  and  _167
REMARK   63  A    between atoms: _170  and  _172
REMARK   64  A    between atoms: _172  and  _173
REMARK   65  A    between atoms: _172  and  _175
REMARK   66  A    between atoms: _175  and  _176
REMARK   67  A    between atoms: _181  and  _182
REMARK   68  A    between atoms: _184  and  _186
REMARK   69  A    between atoms: _186  and  _187
REMARK   70  A    between atoms: _186  and  _189
REMARK   71  A    between atoms: _189  and  _190
REMARK   72  A    between atoms: _192  and  _194
REMARK   73  A    between atoms: _194  and  _195
REMARK   74  A    between atoms: _194  and  _197
REMARK   75  A    between atoms: _197  and  _198
REMARK   76  A    between atoms: _205  and  _206
REMARK   77  A    between atoms: _206  and  _222
REMARK   78  A    between atoms: _207  and  _209
REMARK   79  A    between atoms: _209  and  _210
REMARK   80  A    between atoms: _210  and  _211
REMARK   81  A    between atoms: _215  and  _217
REMARK   82  A    between atoms: _217  and  _218
REMARK   83  A    between atoms: _217  and  _225
REMARK   84  A    between atoms: _218  and  _219
REMARK   85  A    between atoms: _219  and  _220
REMARK   86  A    between atoms: _220  and  _221
REMARK   87  A    between atoms: _221  and  _222
REMARK   88  A    between atoms: _227  and  _229
REMARK   89  A    between atoms: _229  and  _230
REMARK   90  A    between atoms: _229  and  _232
REMARK   91  A    between atoms: _232  and  _233
REMARK   92  A    between atoms: _238  and  _239
REMARK   93  A    between atoms: _241  and  _243
REMARK   94  A    between atoms: _243  and  _244
REMARK   95  A    between atoms: _243  and  _246
REMARK   96  A    between atoms: _246  and  _247
REMARK   97  A    between atoms: _247  and  _248
REMARK   98  A    between atoms: _248  and  _249
REMARK   99  A    between atoms: _258  and  _260
REMARK  100  A    between atoms: _260  and  _261
REMARK  101  A    between atoms: _260  and  _263
REMARK  102  A    between atoms: _263  and  _264
REMARK  103  A    between atoms: _264  and  _265
REMARK  104  A    between atoms: _267  and  _269
REMARK  105  A    between atoms: _269  and  _270
REMARK  106  A    between atoms: _269  and  _272
REMARK  107  A    between atoms: _272  and  _273
REMARK  108  A    between atoms: _279  and  _281
REMARK  109  A    between atoms: _281  and  _282
REMARK  110  A    between atoms: _281  and  _284
REMARK  111  A    between atoms: _287  and  _289
REMARK  112  A    between atoms: _289  and  _290
REMARK  113  A    between atoms: _289  and  _292
REMARK  114  A    between atoms: _292  and  _293
REMARK  115  A    between atoms: _293  and  _294
REMARK  116  A    between atoms: _294  and  _295
REMARK  117  A    between atoms: _304  and  _306
REMARK  118  A    between atoms: _306  and  _307
REMARK  119  A    between atoms: _306  and  _309
REMARK  120  A    between atoms: _309  and  _310
REMARK  121  A    between atoms: _315  and  _317
REMARK  122  A    between atoms: _317  and  _318
REMARK  123  A    between atoms: _317  and  _320
REMARK  124  A    between atoms: _320  and  _321
REMARK  125  A    between atoms: _326  and  _327
REMARK  126  A    between atoms: _329  and  _331
REMARK  127  A    between atoms: _331  and  _332
REMARK  128  A    between atoms: _331  and  _334
REMARK  129  A    between atoms: _334  and  _335
REMARK  130  A    between atoms: _338  and  _340
REMARK  131  A    between atoms: _340  and  _341
REMARK  132  A    between atoms: _340  and  _343
REMARK  133  A    between atoms: _343  and  _344
REMARK  134  A    between atoms: _344  and  _345
REMARK  135  A    between atoms: _345  and  _346
REMARK  136  A    between atoms: _355  and  _357
REMARK  137  A    between atoms: _357  and  _358
REMARK  138  A    between atoms: _357  and  _360
REMARK  139  A    between atoms: _360  and  _361
REMARK  140  A    between atoms: _366  and  _367
REMARK  141  A    between atoms: _369  and  _371
REMARK  142  A    between atoms: _371  and  _372
REMARK  143  A    between atoms: _371  and  _374
REMARK  144  A    between atoms: _374  and  _375
REMARK  145  A    between atoms: _377  and  _379
REMARK  146  A    between atoms: _379  and  _380
REMARK  147  A    between atoms: _379  and  _382
REMARK  148  A    between atoms: _382  and  _383
REMARK                            x       y       z     vdW  Elec       q    Type
REMARK                         _______ _______ _______ _____ _____    ______ ____
ROOT
ATOM      1  O   HOH     1      42.375  90.154 -12.620  0.00  0.00    +0.000 OA
ENDROOT
TORSDOF 0
REMARK  Name = ../refined-set-2016/1tog/1tog_pocket.pdb
REMARK  148 active torsions:
REMARK  status: ('A' for Active; 'I' for Inactive)
REMARK    1  A    between atoms: _1  and  _3
REMARK    2  A    between atoms: _3  and  _4
REMARK    3  A    between atoms: _3  and  _6
REMARK    4  A    between atoms: _6  and  _7
REMARK    5  A    between atoms: _11  and  _12
REMARK    6  A    between atoms: _17  and  _19
REMARK    7  A    between atoms: _19  and  _20
REMARK    8  A    between atoms: _19  and  _22
REMARK    9  A    between atoms: _22  and  _23
REMARK   10  A    between atoms: _26  and  _28
REMARK   11  A    between atoms: _28  and  _29
REMARK   12  A    between atoms: _28  and  _31
REMARK   13  A    between atoms: _31  and  _32
REMARK   14  A    between atoms: _35  and  _37
REMARK   15  A    between atoms: _37  and  _38
REMARK   16  A    between atoms: _40  and  _42
REMARK   17  A    between atoms: _42  and  _43
REMARK   18  A    between atoms: _42  and  _45
REMARK   19  A    between atoms: _45  and  _46
REMARK   20  A    between atoms: _49  and  _51
REMARK   21  A    between atoms: _51  and  _52
REMARK   22  A    between atoms: _51  and  _54
REMARK   23  A    between atoms: _54  and  _55
REMARK   24  A    between atoms: _58  and  _60
REMARK   25  A    between atoms: _60  and  _61
REMARK   26  A    between atoms: _63  and  _65
REMARK   27  A    between atoms: _65  and  _66
REMARK   28  A    between atoms: _65  and  _68
REMARK   29  A    between atoms: _68  and  _69
REMARK   30  A    between atoms: _72  and  _74
REMARK   31  A    between atoms: _74  and  _75
REMARK   32  A    between atoms: _77  and  _79
REMARK   33  A    between atoms: _79  and  _80
REMARK   34  A    between atoms: _79  and  _82
REMARK   35  A    between atoms: _85  and  _87
REMARK   36  A    between atoms: _87  and  _88
REMARK   37  A    between atoms: _90  and  _92
REMARK   38  A    between atoms: _92  and  _93
REMARK   39  A    between atoms: _92  and  _95
REMARK   40  A    between atoms: _95  and  _96
REMARK   41  A    between atoms: _98  and  _100
REMARK   42  A    between atoms: _100  and  _101
REMARK   43  A    between atoms: _103  and  _105
REMARK   44  A    between atoms: _105  and  _106
REMARK   45  A    between atoms: _105  and  _108
REMARK   46  A    between atoms: _108  and  _109
REMARK   47  A    between atoms: _112  and  _114
REMARK   48  A    between atoms: _114  and  _115
REMARK   49  A    between atoms: _114  and  _117
REMARK   50  A    between atoms: _117  and  _118
REMARK   51  A    between atoms: _129  and  _130
REMARK   52  A    between atoms: _135  and  _137
REMARK   53  A    between atoms: _137  and  _138
REMARK   54  A    between atoms: _137  and  _140
REMARK   55  A    between atoms: _140  and  _141
REMARK   56  A    between atoms: _146  and  _148
REMARK   57  A    between atoms: _148  and  _149
REMARK   58  A    between atoms: _148  and  _151
REMARK   59  A    between atoms: _151  and  _152
REMARK   60  A    between atoms: _158  and  _159
REMARK   61  A    between atoms: _164  and  _166
REMARK   62  A    between atoms: _166  and  _167
REMARK   63  A    between atoms: _170  and  _172
REMARK   64  A    between atoms: _172  and  _173
REMARK   65  A    between atoms: _172  and  _175
REMARK   66  A    between atoms: _175  and  _176
REMARK   67  A    between atoms: _181  and  _182
REMARK   68  A    between atoms: _184  and  _186
REMARK   69  A    between atoms: _186  and  _187
REMARK   70  A    between atoms: _186  and  _189
REMARK   71  A    between atoms: _189  and  _190
REMARK   72  A    between atoms: _192  and  _194
REMARK   73  A    between atoms: _194  and  _195
REMARK   74  A    between atoms: _194  and  _197
REMARK   75  A    between atoms: _197  and  _198
REMARK   76  A    between atoms: _205  and  _206
REMARK   77  A    between atoms: _206  and  _222
REMARK   78  A    between atoms: _207  and  _209
REMARK   79  A    between atoms: _209  and  _210
REMARK   80  A    between atoms: _210  and  _211
REMARK   81  A    between atoms: _215  and  _217
REMARK   82  A    between atoms: _217  and  _218
REMARK   83  A    between atoms: _217  and  _225
REMARK   84  A    between atoms: _218  and  _219
REMARK   85  A    between atoms: _219  and  _220
REMARK   86  A    between atoms: _220  and  _221
REMARK   87  A    between atoms: _221  and  _222
REMARK   88  A    between atoms: _227  and  _229
REMARK   89  A    between atoms: _229  and  _230
REMARK   90  A    between atoms: _229  and  _232
REMARK   91  A    between atoms: _232  and  _233
REMARK   92  A    between atoms: _238  and  _239
REMARK   93  A    between atoms: _241  and  _243
REMARK   94  A    between atoms: _243  and  _244
REMARK   95  A    between atoms: _243  and  _246
REMARK   96  A    between atoms: _246  and  _247
REMARK   97  A    between atoms: _247  and  _248
REMARK   98  A    between atoms: _248  and  _249
REMARK   99  A    between atoms: _258  and  _260
REMARK  100  A    between atoms: _260  and  _261
REMARK  101  A    between atoms: _260  and  _263
REMARK  102  A    between atoms: _263  and  _264
REMARK  103  A    between atoms: _264  and  _265
REMARK  104  A    between atoms: _267  and  _269
REMARK  105  A    between atoms: _269  and  _270
REMARK  106  A    between atoms: _269  and  _272
REMARK  107  A    between atoms: _272  and  _273
REMARK  108  A    between atoms: _279  and  _281
REMARK  109  A    between atoms: _281  and  _282
REMARK  110  A    between atoms: _281  and  _284
REMARK  111  A    between atoms: _287  and  _289
REMARK  112  A    between atoms: _289  and  _290
REMARK  113  A    between atoms: _289  and  _292
REMARK  114  A    between atoms: _292  and  _293
REMARK  115  A    between atoms: _293  and  _294
REMARK  116  A    between atoms: _294  and  _295
REMARK  117  A    between atoms: _304  and  _306
REMARK  118  A    between atoms: _306  and  _307
REMARK  119  A    between atoms: _306  and  _309
REMARK  120  A    between atoms: _309  and  _310
REMARK  121  A    between atoms: _315  and  _317
REMARK  122  A    between atoms: _317  and  _318
REMARK  123  A    between atoms: _317  and  _320
REMARK  124  A    between atoms: _320  and  _321
REMARK  125  A    between atoms: _326  and  _327
REMARK  126  A    between atoms: _329  and  _331
REMARK  127  A    between atoms: _331  and  _332
REMARK  128  A    between atoms: _331  and  _334
REMARK  129  A    between atoms: _334  and  _335
REMARK  130  A    between atoms: _338  and  _340
REMARK  131  A    between atoms: _340  and  _341
REMARK  132  A    between atoms: _340  and  _343
REMARK  133  A    between atoms: _343  and  _344
REMARK  134  A    between atoms: _344  and  _345
REMARK  135  A    between atoms: _345  and  _346
REMARK  136  A    between atoms: _355  and  _357
REMARK  137  A    between atoms: _357  and  _358
REMARK  138  A    between atoms: _357  and  _360
REMARK  139  A    between atoms: _360  and  _361
REMARK  140  A    between atoms: _366  and  _367
REMARK  141  A    between atoms: _369  and  _371
REMARK  142  A    between atoms: _371  and  _372
REMARK  143  A    between atoms: _371  and  _374
REMARK  144  A    between atoms: _374  and  _375
REMARK  145  A    between atoms: _377  and  _379
REMARK  146  A    between atoms: _379  and  _380
REMARK  147  A    between atoms: _379  and  _382
REMARK  148  A    between atoms: _382  and  _383
REMARK                            x       y       z     vdW  Elec       q    Type
REMARK                         _______ _______ _______ _____ _____    ______ ____
ROOT
ATOM      1  O   HOH     1      47.227  94.325 -21.003  0.00  0.00    +0.000 OA
ENDROOT
TORSDOF 0
REMARK  Name = ../refined-set-2016/1tog/1tog_pocket.pdb
REMARK  148 active torsions:
REMARK  status: ('A' for Active; 'I' for Inactive)
REMARK    1  A    between atoms: _1  and  _3
REMARK    2  A    between atoms: _3  and  _4
REMARK    3  A    between atoms: _3  and  _6
REMARK    4  A    between atoms: _6  and  _7
REMARK    5  A    between atoms: _11  and  _12
REMARK    6  A    between atoms: _17  and  _19
REMARK    7  A    between atoms: _19  and  _20
REMARK    8  A    between atoms: _19  and  _22
REMARK    9  A    between atoms: _22  and  _23
REMARK   10  A    between atoms: _26  and  _28
REMARK   11  A    between atoms: _28  and  _29
REMARK   12  A    between atoms: _28  and  _31
REMARK   13  A    between atoms: _31  and  _32
REMARK   14  A    between atoms: _35  and  _37
REMARK   15  A    between atoms: _37  and  _38
REMARK   16  A    between atoms: _40  and  _42
REMARK   17  A    between atoms: _42  and  _43
REMARK   18  A    between atoms: _42  and  _45
REMARK   19  A    between atoms: _45  and  _46
REMARK   20  A    between atoms: _49  and  _51
REMARK   21  A    between atoms: _51  and  _52
REMARK   22  A    between atoms: _51  and  _54
REMARK   23  A    between atoms: _54  and  _55
REMARK   24  A    between atoms: _58  and  _60
REMARK   25  A    between atoms: _60  and  _61
REMARK   26  A    between atoms: _63  and  _65
REMARK   27  A    between atoms: _65  and  _66
REMARK   28  A    between atoms: _65  and  _68
REMARK   29  A    between atoms: _68  and  _69
REMARK   30  A    between atoms: _72  and  _74
REMARK   31  A    between atoms: _74  and  _75
REMARK   32  A    between atoms: _77  and  _79
REMARK   33  A    between atoms: _79  and  _80
REMARK   34  A    between atoms: _79  and  _82
REMARK   35  A    between atoms: _85  and  _87
REMARK   36  A    between atoms: _87  and  _88
REMARK   37  A    between atoms: _90  and  _92
REMARK   38  A    between atoms: _92  and  _93
REMARK   39  A    between atoms: _92  and  _95
REMARK   40  A    between atoms: _95  and  _96
REMARK   41  A    between atoms: _98  and  _100
REMARK   42  A    between atoms: _100  and  _101
REMARK   43  A    between atoms: _103  and  _105
REMARK   44  A    between atoms: _105  and  _106
REMARK   45  A    between atoms: _105  and  _108
REMARK   46  A    between atoms: _108  and  _109
REMARK   47  A    between atoms: _112  and  _114
REMARK   48  A    between atoms: _114  and  _115
REMARK   49  A    between atoms: _114  and  _117
REMARK   50  A    between atoms: _117  and  _118
REMARK   51  A    between atoms: _129  and  _130
REMARK   52  A    between atoms: _135  and  _137
REMARK   53  A    between atoms: _137  and  _138
REMARK   54  A    between atoms: _137  and  _140
REMARK   55  A    between atoms: _140  and  _141
REMARK   56  A    between atoms: _146  and  _148
REMARK   57  A    between atoms: _148  and  _149
REMARK   58  A    between atoms: _148  and  _151
REMARK   59  A    between atoms: _151  and  _152
REMARK   60  A    between atoms: _158  and  _159
REMARK   61  A    between atoms: _164  and  _166
REMARK   62  A    between atoms: _166  and  _167
REMARK   63  A    between atoms: _170  and  _172
REMARK   64  A    between atoms: _172  and  _173
REMARK   65  A    between atoms: _172  and  _175
REMARK   66  A    between atoms: _175  and  _176
REMARK   67  A    between atoms: _181  and  _182
REMARK   68  A    between atoms: _184  and  _186
REMARK   69  A    between atoms: _186  and  _187
REMARK   70  A    between atoms: _186  and  _189
REMARK   71  A    between atoms: _189  and  _190
REMARK   72  A    between atoms: _192  and  _194
REMARK   73  A    between atoms: _194  and  _195
REMARK   74  A    between atoms: _194  and  _197
REMARK   75  A    between atoms: _197  and  _198
REMARK   76  A    between atoms: _205  and  _206
REMARK   77  A    between atoms: _206  and  _222
REMARK   78  A    between atoms: _207  and  _209
REMARK   79  A    between atoms: _209  and  _210
REMARK   80  A    between atoms: _210  and  _211
REMARK   81  A    between atoms: _215  and  _217
REMARK   82  A    between atoms: _217  and  _218
REMARK   83  A    between atoms: _217  and  _225
REMARK   84  A    between atoms: _218  and  _219
REMARK   85  A    between atoms: _219  and  _220
REMARK   86  A    between atoms: _220  and  _221
REMARK   87  A    between atoms: _221  and  _222
REMARK   88  A    between atoms: _227  and  _229
REMARK   89  A    between atoms: _229  and  _230
REMARK   90  A    between atoms: _229  and  _232
REMARK   91  A    between atoms: _232  and  _233
REMARK   92  A    between atoms: _238  and  _239
REMARK   93  A    between atoms: _241  and  _243
REMARK   94  A    between atoms: _243  and  _244
REMARK   95  A    between atoms: _243  and  _246
REMARK   96  A    between atoms: _246  and  _247
REMARK   97  A    between atoms: _247  and  _248
REMARK   98  A    between atoms: _248  and  _249
REMARK   99  A    between atoms: _258  and  _260
REMARK  100  A    between atoms: _260  and  _261
REMARK  101  A    between atoms: _260  and  _263
REMARK  102  A    between atoms: _263  and  _264
REMARK  103  A    between atoms: _264  and  _265
REMARK  104  A    between atoms: _267  and  _269
REMARK  105  A    between atoms: _269  and  _270
REMARK  106  A    between atoms: _269  and  _272
REMARK  107  A    between atoms: _272  and  _273
REMARK  108  A    between atoms: _279  and  _281
REMARK  109  A    between atoms: _281  and  _282
REMARK  110  A    between atoms: _281  and  _284
REMARK  111  A    between atoms: _287  and  _289
REMARK  112  A    between atoms: _289  and  _290
REMARK  113  A    between atoms: _289  and  _292
REMARK  114  A    between atoms: _292  and  _293
REMARK  115  A    between atoms: _293  and  _294
REMARK  116  A    between atoms: _294  and  _295
REMARK  117  A    between atoms: _304  and  _306
REMARK  118  A    between atoms: _306  and  _307
REMARK  119  A    between atoms: _306  and  _309
REMARK  120  A    between atoms: _309  and  _310
REMARK  121  A    between atoms: _315  and  _317
REMARK  122  A    between atoms: _317  and  _318
REMARK  123  A    between atoms: _317  and  _320
REMARK  124  A    between atoms: _320  and  _321
REMARK  125  A    between atoms: _326  and  _327
REMARK  126  A    between atoms: _329  and  _331
REMARK  127  A    between atoms: _331  and  _332
REMARK  128  A    between atoms: _331  and  _334
REMARK  129  A    between atoms: _334  and  _335
REMARK  130  A    between atoms: _338  and  _340
REMARK  131  A    between atoms: _340  and  _341
REMARK  132  A    between atoms: _340  and  _343
REMARK  133  A    between atoms: _343  and  _344
REMARK  134  A    between atoms: _344  and  _345
REMARK  135  A    between atoms: _345  and  _346
REMARK  136  A    between atoms: _355  and  _357
REMARK  137  A    between atoms: _357  and  _358
REMARK  138  A    between atoms: _357  and  _360
REMARK  139  A    between atoms: _360  and  _361
REMARK  140  A    between atoms: _366  and  _367
REMARK  141  A    between atoms: _369  and  _371
REMARK  142  A    between atoms: _371  and  _372
REMARK  143  A    between atoms: _371  and  _374
REMARK  144  A    between atoms: _374  and  _375
REMARK  145  A    between atoms: _377  and  _379
REMARK  146  A    between atoms: _379  and  _380
REMARK  147  A    between atoms: _379  and  _382
REMARK  148  A    between atoms: _382  and  _383
REMARK                            x       y       z     vdW  Elec       q    Type
REMARK                         _______ _______ _______ _____ _____    ______ ____
ROOT
ATOM      1  O   HOH     1      49.515 100.042 -14.197  0.00  0.00    +0.000 OA
ENDROOT
TORSDOF 0
REMARK  Name = ../refined-set-2016/1tog/1tog_pocket.pdb
REMARK  148 active torsions:
REMARK  status: ('A' for Active; 'I' for Inactive)
REMARK    1  A    between atoms: _1  and  _3
REMARK    2  A    between atoms: _3  and  _4
REMARK    3  A    between atoms: _3  and  _6
REMARK    4  A    between atoms: _6  and  _7
REMARK    5  A    between atoms: _11  and  _12
REMARK    6  A    between atoms: _17  and  _19
REMARK    7  A    between atoms: _19  and  _20
REMARK    8  A    between atoms: _19  and  _22
REMARK    9  A    between atoms: _22  and  _23
REMARK   10  A    between atoms: _26  and  _28
REMARK   11  A    between atoms: _28  and  _29
REMARK   12  A    between atoms: _28  and  _31
REMARK   13  A    between atoms: _31  and  _32
REMARK   14  A    between atoms: _35  and  _37
REMARK   15  A    between atoms: _37  and  _38
REMARK   16  A    between atoms: _40  and  _42
REMARK   17  A    between atoms: _42  and  _43
REMARK   18  A    between atoms: _42  and  _45
REMARK   19  A    between atoms: _45  and  _46
REMARK   20  A    between atoms: _49  and  _51
REMARK   21  A    between atoms: _51  and  _52
REMARK   22  A    between atoms: _51  and  _54
REMARK   23  A    between atoms: _54  and  _55
REMARK   24  A    between atoms: _58  and  _60
REMARK   25  A    between atoms: _60  and  _61
REMARK   26  A    between atoms: _63  and  _65
REMARK   27  A    between atoms: _65  and  _66
REMARK   28  A    between atoms: _65  and  _68
REMARK   29  A    between atoms: _68  and  _69
REMARK   30  A    between atoms: _72  and  _74
REMARK   31  A    between atoms: _74  and  _75
REMARK   32  A    between atoms: _77  and  _79
REMARK   33  A    between atoms: _79  and  _80
REMARK   34  A    between atoms: _79  and  _82
REMARK   35  A    between atoms: _85  and  _87
REMARK   36  A    between atoms: _87  and  _88
REMARK   37  A    between atoms: _90  and  _92
REMARK   38  A    between atoms: _92  and  _93
REMARK   39  A    between atoms: _92  and  _95
REMARK   40  A    between atoms: _95  and  _96
REMARK   41  A    between atoms: _98  and  _100
REMARK   42  A    between atoms: _100  and  _101
REMARK   43  A    between atoms: _103  and  _105
REMARK   44  A    between atoms: _105  and  _106
REMARK   45  A    between atoms: _105  and  _108
REMARK   46  A    between atoms: _108  and  _109
REMARK   47  A    between atoms: _112  and  _114
REMARK   48  A    between atoms: _114  and  _115
REMARK   49  A    between atoms: _114  and  _117
REMARK   50  A    between atoms: _117  and  _118
REMARK   51  A    between atoms: _129  and  _130
REMARK   52  A    between atoms: _135  and  _137
REMARK   53  A    between atoms: _137  and  _138
REMARK   54  A    between atoms: _137  and  _140
REMARK   55  A    between atoms: _140  and  _141
REMARK   56  A    between atoms: _146  and  _148
REMARK   57  A    between atoms: _148  and  _149
REMARK   58  A    between atoms: _148  and  _151
REMARK   59  A    between atoms: _151  and  _152
REMARK   60  A    between atoms: _158  and  _159
REMARK   61  A    between atoms: _164  and  _166
REMARK   62  A    between atoms: _166  and  _167
REMARK   63  A    between atoms: _170  and  _172
REMARK   64  A    between atoms: _172  and  _173
REMARK   65  A    between atoms: _172  and  _175
REMARK   66  A    between atoms: _175  and  _176
REMARK   67  A    between atoms: _181  and  _182
REMARK   68  A    between atoms: _184  and  _186
REMARK   69  A    between atoms: _186  and  _187
REMARK   70  A    between atoms: _186  and  _189
REMARK   71  A    between atoms: _189  and  _190
REMARK   72  A    between atoms: _192  and  _194
REMARK   73  A    between atoms: _194  and  _195
REMARK   74  A    between atoms: _194  and  _197
REMARK   75  A    between atoms: _197  and  _198
REMARK   76  A    between atoms: _205  and  _206
REMARK   77  A    between atoms: _206  and  _222
REMARK   78  A    between atoms: _207  and  _209
REMARK   79  A    between atoms: _209  and  _210
REMARK   80  A    between atoms: _210  and  _211
REMARK   81  A    between atoms: _215  and  _217
REMARK   82  A    between atoms: _217  and  _218
REMARK   83  A    between atoms: _217  and  _225
REMARK   84  A    between atoms: _218  and  _219
REMARK   85  A    between atoms: _219  and  _220
REMARK   86  A    between atoms: _220  and  _221
REMARK   87  A    between atoms: _221  and  _222
REMARK   88  A    between atoms: _227  and  _229
REMARK   89  A    between atoms: _229  and  _230
REMARK   90  A    between atoms: _229  and  _232
REMARK   91  A    between atoms: _232  and  _233
REMARK   92  A    between atoms: _238  and  _239
REMARK   93  A    between atoms: _241  and  _243
REMARK   94  A    between atoms: _243  and  _244
REMARK   95  A    between atoms: _243  and  _246
REMARK   96  A    between atoms: _246  and  _247
REMARK   97  A    between atoms: _247  and  _248
REMARK   98  A    between atoms: _248  and  _249
REMARK   99  A    between atoms: _258  and  _260
REMARK  100  A    between atoms: _260  and  _261
REMARK  101  A    between atoms: _260  and  _263
REMARK  102  A    between atoms: _263  and  _264
REMARK  103  A    between atoms: _264  and  _265
REMARK  104  A    between atoms: _267  and  _269
REMARK  105  A    between atoms: _269  and  _270
REMARK  106  A    between atoms: _269  and  _272
REMARK  107  A    between atoms: _272  and  _273
REMARK  108  A    between atoms: _279  and  _281
REMARK  109  A    between atoms: _281  and  _282
REMARK  110  A    between atoms: _281  and  _284
REMARK  111  A    between atoms: _287  and  _289
REMARK  112  A    between atoms: _289  and  _290
REMARK  113  A    between atoms: _289  and  _292
REMARK  114  A    between atoms: _292  and  _293
REMARK  115  A    between atoms: _293  and  _294
REMARK  116  A    between atoms: _294  and  _295
REMARK  117  A    between atoms: _304  and  _306
REMARK  118  A    between atoms: _306  and  _307
REMARK  119  A    between atoms: _306  and  _309
REMARK  120  A    between atoms: _309  and  _310
REMARK  121  A    between atoms: _315  and  _317
REMARK  122  A    between atoms: _317  and  _318
REMARK  123  A    between atoms: _317  and  _320
REMARK  124  A    between atoms: _320  and  _321
REMARK  125  A    between atoms: _326  and  _327
REMARK  126  A    between atoms: _329  and  _331
REMARK  127  A    between atoms: _331  and  _332
REMARK  128  A    between atoms: _331  and  _334
REMARK  129  A    between atoms: _334  and  _335
REMARK  130  A    between atoms: _338  and  _340
REMARK  131  A    between atoms: _340  and  _341
REMARK  132  A    between atoms: _340  and  _343
REMARK  133  A    between atoms: _343  and  _344
REMARK  134  A    between atoms: _344  and  _345
REMARK  135  A    between atoms: _345  and  _346
REMARK  136  A    between atoms: _355  and  _357
REMARK  137  A    between atoms: _357  and  _358
REMARK  138  A    between atoms: _357  and  _360
REMARK  139  A    between atoms: _360  and  _361
REMARK  140  A    between atoms: _366  and  _367
REMARK  141  A    between atoms: _369  and  _371
REMARK  142  A    between atoms: _371  and  _372
REMARK  143  A    between atoms: _371  and  _374
REMARK  144  A    between atoms: _374  and  _375
REMARK  145  A    between atoms: _377  and  _379
REMARK  146  A    between atoms: _379  and  _380
REMARK  147  A    between atoms: _379  and  _382
REMARK  148  A    between atoms: _382  and  _383
REMARK                            x       y       z     vdW  Elec       q    Type
REMARK                         _______ _______ _______ _____ _____    ______ ____
ROOT
ATOM      1  O   HOH     1      50.327  87.815 -21.273  0.00  0.00    +0.000 OA
ENDROOT
TORSDOF 0
REMARK  Name = ../refined-set-2016/1tog/1tog_pocket.pdb
REMARK  148 active torsions:
REMARK  status: ('A' for Active; 'I' for Inactive)
REMARK    1  A    between atoms: _1  and  _3
REMARK    2  A    between atoms: _3  and  _4
REMARK    3  A    between atoms: _3  and  _6
REMARK    4  A    between atoms: _6  and  _7
REMARK    5  A    between atoms: _11  and  _12
REMARK    6  A    between atoms: _17  and  _19
REMARK    7  A    between atoms: _19  and  _20
REMARK    8  A    between atoms: _19  and  _22
REMARK    9  A    between atoms: _22  and  _23
REMARK   10  A    between atoms: _26  and  _28
REMARK   11  A    between atoms: _28  and  _29
REMARK   12  A    between atoms: _28  and  _31
REMARK   13  A    between atoms: _31  and  _32
REMARK   14  A    between atoms: _35  and  _37
REMARK   15  A    between atoms: _37  and  _38
REMARK   16  A    between atoms: _40  and  _42
REMARK   17  A    between atoms: _42  and  _43
REMARK   18  A    between atoms: _42  and  _45
REMARK   19  A    between atoms: _45  and  _46
REMARK   20  A    between atoms: _49  and  _51
REMARK   21  A    between atoms: _51  and  _52
REMARK   22  A    between atoms: _51  and  _54
REMARK   23  A    between atoms: _54  and  _55
REMARK   24  A    between atoms: _58  and  _60
REMARK   25  A    between atoms: _60  and  _61
REMARK   26  A    between atoms: _63  and  _65
REMARK   27  A    between atoms: _65  and  _66
REMARK   28  A    between atoms: _65  and  _68
REMARK   29  A    between atoms: _68  and  _69
REMARK   30  A    between atoms: _72  and  _74
REMARK   31  A    between atoms: _74  and  _75
REMARK   32  A    between atoms: _77  and  _79
REMARK   33  A    between atoms: _79  and  _80
REMARK   34  A    between atoms: _79  and  _82
REMARK   35  A    between atoms: _85  and  _87
REMARK   36  A    between atoms: _87  and  _88
REMARK   37  A    between atoms: _90  and  _92
REMARK   38  A    between atoms: _92  and  _93
REMARK   39  A    between atoms: _92  and  _95
REMARK   40  A    between atoms: _95  and  _96
REMARK   41  A    between atoms: _98  and  _100
REMARK   42  A    between atoms: _100  and  _101
REMARK   43  A    between atoms: _103  and  _105
REMARK   44  A    between atoms: _105  and  _106
REMARK   45  A    between atoms: _105  and  _108
REMARK   46  A    between atoms: _108  and  _109
REMARK   47  A    between atoms: _112  and  _114
REMARK   48  A    between atoms: _114  and  _115
REMARK   49  A    between atoms: _114  and  _117
REMARK   50  A    between atoms: _117  and  _118
REMARK   51  A    between atoms: _129  and  _130
REMARK   52  A    between atoms: _135  and  _137
REMARK   53  A    between atoms: _137  and  _138
REMARK   54  A    between atoms: _137  and  _140
REMARK   55  A    between atoms: _140  and  _141
REMARK   56  A    between atoms: _146  and  _148
REMARK   57  A    between atoms: _148  and  _149
REMARK   58  A    between atoms: _148  and  _151
REMARK   59  A    between atoms: _151  and  _152
REMARK   60  A    between atoms: _158  and  _159
REMARK   61  A    between atoms: _164  and  _166
REMARK   62  A    between atoms: _166  and  _167
REMARK   63  A    between atoms: _170  and  _172
REMARK   64  A    between atoms: _172  and  _173
REMARK   65  A    between atoms: _172  and  _175
REMARK   66  A    between atoms: _175  and  _176
REMARK   67  A    between atoms: _181  and  _182
REMARK   68  A    between atoms: _184  and  _186
REMARK   69  A    between atoms: _186  and  _187
REMARK   70  A    between atoms: _186  and  _189
REMARK   71  A    between atoms: _189  and  _190
REMARK   72  A    between atoms: _192  and  _194
REMARK   73  A    between atoms: _194  and  _195
REMARK   74  A    between atoms: _194  and  _197
REMARK   75  A    between atoms: _197  and  _198
REMARK   76  A    between atoms: _205  and  _206
REMARK   77  A    between atoms: _206  and  _222
REMARK   78  A    between atoms: _207  and  _209
REMARK   79  A    between atoms: _209  and  _210
REMARK   80  A    between atoms: _210  and  _211
REMARK   81  A    between atoms: _215  and  _217
REMARK   82  A    between atoms: _217  and  _218
REMARK   83  A    between atoms: _217  and  _225
REMARK   84  A    between atoms: _218  and  _219
REMARK   85  A    between atoms: _219  and  _220
REMARK   86  A    between atoms: _220  and  _221
REMARK   87  A    between atoms: _221  and  _222
REMARK   88  A    between atoms: _227  and  _229
REMARK   89  A    between atoms: _229  and  _230
REMARK   90  A    between atoms: _229  and  _232
REMARK   91  A    between atoms: _232  and  _233
REMARK   92  A    between atoms: _238  and  _239
REMARK   93  A    between atoms: _241  and  _243
REMARK   94  A    between atoms: _243  and  _244
REMARK   95  A    between atoms: _243  and  _246
REMARK   96  A    between atoms: _246  and  _247
REMARK   97  A    between atoms: _247  and  _248
REMARK   98  A    between atoms: _248  and  _249
REMARK   99  A    between atoms: _258  and  _260
REMARK  100  A    between atoms: _260  and  _261
REMARK  101  A    between atoms: _260  and  _263
REMARK  102  A    between atoms: _263  and  _264
REMARK  103  A    between atoms: _264  and  _265
REMARK  104  A    between atoms: _267  and  _269
REMARK  105  A    between atoms: _269  and  _270
REMARK  106  A    between atoms: _269  and  _272
REMARK  107  A    between atoms: _272  and  _273
REMARK  108  A    between atoms: _279  and  _281
REMARK  109  A    between atoms: _281  and  _282
REMARK  110  A    between atoms: _281  and  _284
REMARK  111  A    between atoms: _287  and  _289
REMARK  112  A    between atoms: _289  and  _290
REMARK  113  A    between atoms: _289  and  _292
REMARK  114  A    between atoms: _292  and  _293
REMARK  115  A    between atoms: _293  and  _294
REMARK  116  A    between atoms: _294  and  _295
REMARK  117  A    between atoms: _304  and  _306
REMARK  118  A    between atoms: _306  and  _307
REMARK  119  A    between atoms: _306  and  _309
REMARK  120  A    between atoms: _309  and  _310
REMARK  121  A    between atoms: _315  and  _317
REMARK  122  A    between atoms: _317  and  _318
REMARK  123  A    between atoms: _317  and  _320
REMARK  124  A    between atoms: _320  and  _321
REMARK  125  A    between atoms: _326  and  _327
REMARK  126  A    between atoms: _329  and  _331
REMARK  127  A    between atoms: _331  and  _332
REMARK  128  A    between atoms: _331  and  _334
REMARK  129  A    between atoms: _334  and  _335
REMARK  130  A    between atoms: _338  and  _340
REMARK  131  A    between atoms: _340  and  _341
REMARK  132  A    between atoms: _340  and  _343
REMARK  133  A    between atoms: _343  and  _344
REMARK  134  A    between atoms: _344  and  _345
REMARK  135  A    between atoms: _345  and  _346
REMARK  136  A    between atoms: _355  and  _357
REMARK  137  A    between atoms: _357  and  _358
REMARK  138  A    between atoms: _357  and  _360
REMARK  139  A    between atoms: _360  and  _361
REMARK  140  A    between atoms: _366  and  _367
REMARK  141  A    between atoms: _369  and  _371
REMARK  142  A    between atoms: _371  and  _372
REMARK  143  A    between atoms: _371  and  _374
REMARK  144  A    between atoms: _374  and  _375
REMARK  145  A    between atoms: _377  and  _379
REMARK  146  A    between atoms: _379  and  _380
REMARK  147  A    between atoms: _379  and  _382
REMARK  148  A    between atoms: _382  and  _383
REMARK                            x       y       z     vdW  Elec       q    Type
REMARK                         _______ _______ _______ _____ _____    ______ ____
ROOT
ATOM      1  O   HOH     1      42.570  87.768 -13.901  0.00  0.00    +0.000 OA
ENDROOT
TORSDOF 0
REMARK  Name = ../refined-set-2016/1tog/1tog_pocket.pdb
REMARK  148 active torsions:
REMARK  status: ('A' for Active; 'I' for Inactive)
REMARK    1  A    between atoms: _1  and  _3
REMARK    2  A    between atoms: _3  and  _4
REMARK    3  A    between atoms: _3  and  _6
REMARK    4  A    between atoms: _6  and  _7
REMARK    5  A    between atoms: _11  and  _12
REMARK    6  A    between atoms: _17  and  _19
REMARK    7  A    between atoms: _19  and  _20
REMARK    8  A    between atoms: _19  and  _22
REMARK    9  A    between atoms: _22  and  _23
REMARK   10  A    between atoms: _26  and  _28
REMARK   11  A    between atoms: _28  and  _29
REMARK   12  A    between atoms: _28  and  _31
REMARK   13  A    between atoms: _31  and  _32
REMARK   14  A    between atoms: _35  and  _37
REMARK   15  A    between atoms: _37  and  _38
REMARK   16  A    between atoms: _40  and  _42
REMARK   17  A    between atoms: _42  and  _43
REMARK   18  A    between atoms: _42  and  _45
REMARK   19  A    between atoms: _45  and  _46
REMARK   20  A    between atoms: _49  and  _51
REMARK   21  A    between atoms: _51  and  _52
REMARK   22  A    between atoms: _51  and  _54
REMARK   23  A    between atoms: _54  and  _55
REMARK   24  A    between atoms: _58  and  _60
REMARK   25  A    between atoms: _60  and  _61
REMARK   26  A    between atoms: _63  and  _65
REMARK   27  A    between atoms: _65  and  _66
REMARK   28  A    between atoms: _65  and  _68
REMARK   29  A    between atoms: _68  and  _69
REMARK   30  A    between atoms: _72  and  _74
REMARK   31  A    between atoms: _74  and  _75
REMARK   32  A    between atoms: _77  and  _79
REMARK   33  A    between atoms: _79  and  _80
REMARK   34  A    between atoms: _79  and  _82
REMARK   35  A    between atoms: _85  and  _87
REMARK   36  A    between atoms: _87  and  _88
REMARK   37  A    between atoms: _90  and  _92
REMARK   38  A    between atoms: _92  and  _93
REMARK   39  A    between atoms: _92  and  _95
REMARK   40  A    between atoms: _95  and  _96
REMARK   41  A    between atoms: _98  and  _100
REMARK   42  A    between atoms: _100  and  _101
REMARK   43  A    between atoms: _103  and  _105
REMARK   44  A    between atoms: _105  and  _106
REMARK   45  A    between atoms: _105  and  _108
REMARK   46  A    between atoms: _108  and  _109
REMARK   47  A    between atoms: _112  and  _114
REMARK   48  A    between atoms: _114  and  _115
REMARK   49  A    between atoms: _114  and  _117
REMARK   50  A    between atoms: _117  and  _118
REMARK   51  A    between atoms: _129  and  _130
REMARK   52  A    between atoms: _135  and  _137
REMARK   53  A    between atoms: _137  and  _138
REMARK   54  A    between atoms: _137  and  _140
REMARK   55  A    between atoms: _140  and  _141
REMARK   56  A    between atoms: _146  and  _148
REMARK   57  A    between atoms: _148  and  _149
REMARK   58  A    between atoms: _148  and  _151
REMARK   59  A    between atoms: _151  and  _152
REMARK   60  A    between atoms: _158  and  _159
REMARK   61  A    between atoms: _164  and  _166
REMARK   62  A    between atoms: _166  and  _167
REMARK   63  A    between atoms: _170  and  _172
REMARK   64  A    between atoms: _172  and  _173
REMARK   65  A    between atoms: _172  and  _175
REMARK   66  A    between atoms: _175  and  _176
REMARK   67  A    between atoms: _181  and  _182
REMARK   68  A    between atoms: _184  and  _186
REMARK   69  A    between atoms: _186  and  _187
REMARK   70  A    between atoms: _186  and  _189
REMARK   71  A    between atoms: _189  and  _190
REMARK   72  A    between atoms: _192  and  _194
REMARK   73  A    between atoms: _194  and  _195
REMARK   74  A    between atoms: _194  and  _197
REMARK   75  A    between atoms: _197  and  _198
REMARK   76  A    between atoms: _205  and  _206
REMARK   77  A    between atoms: _206  and  _222
REMARK   78  A    between atoms: _207  and  _209
REMARK   79  A    between atoms: _209  and  _210
REMARK   80  A    between atoms: _210  and  _211
REMARK   81  A    between atoms: _215  and  _217
REMARK   82  A    between atoms: _217  and  _218
REMARK   83  A    between atoms: _217  and  _225
REMARK   84  A    between atoms: _218  and  _219
REMARK   85  A    between atoms: _219  and  _220
REMARK   86  A    between atoms: _220  and  _221
REMARK   87  A    between atoms: _221  and  _222
REMARK   88  A    between atoms: _227  and  _229
REMARK   89  A    between atoms: _229  and  _230
REMARK   90  A    between atoms: _229  and  _232
REMARK   91  A    between atoms: _232  and  _233
REMARK   92  A    between atoms: _238  and  _239
REMARK   93  A    between atoms: _241  and  _243
REMARK   94  A    between atoms: _243  and  _244
REMARK   95  A    between atoms: _243  and  _246
REMARK   96  A    between atoms: _246  and  _247
REMARK   97  A    between atoms: _247  and  _248
REMARK   98  A    between atoms: _248  and  _249
REMARK   99  A    between atoms: _258  and  _260
REMARK  100  A    between atoms: _260  and  _261
REMARK  101  A    between atoms: _260  and  _263
REMARK  102  A    between atoms: _263  and  _264
REMARK  103  A    between atoms: _264  and  _265
REMARK  104  A    between atoms: _267  and  _269
REMARK  105  A    between atoms: _269  and  _270
REMARK  106  A    between atoms: _269  and  _272
REMARK  107  A    between atoms: _272  and  _273
REMARK  108  A    between atoms: _279  and  _281
REMARK  109  A    between atoms: _281  and  _282
REMARK  110  A    between atoms: _281  and  _284
REMARK  111  A    between atoms: _287  and  _289
REMARK  112  A    between atoms: _289  and  _290
REMARK  113  A    between atoms: _289  and  _292
REMARK  114  A    between atoms: _292  and  _293
REMARK  115  A    between atoms: _293  and  _294
REMARK  116  A    between atoms: _294  and  _295
REMARK  117  A    between atoms: _304  and  _306
REMARK  118  A    between atoms: _306  and  _307
REMARK  119  A    between atoms: _306  and  _309
REMARK  120  A    between atoms: _309  and  _310
REMARK  121  A    between atoms: _315  and  _317
REMARK  122  A    between atoms: _317  and  _318
REMARK  123  A    between atoms: _317  and  _320
REMARK  124  A    between atoms: _320  and  _321
REMARK  125  A    between atoms: _326  and  _327
REMARK  126  A    between atoms: _329  and  _331
REMARK  127  A    between atoms: _331  and  _332
REMARK  128  A    between atoms: _331  and  _334
REMARK  129  A    between atoms: _334  and  _335
REMARK  130  A    between atoms: _338  and  _340
REMARK  131  A    between atoms: _340  and  _341
REMARK  132  A    between atoms: _340  and  _343
REMARK  133  A    between atoms: _343  and  _344
REMARK  134  A    between atoms: _344  and  _345
REMARK  135  A    between atoms: _345  and  _346
REMARK  136  A    between atoms: _355  and  _357
REMARK  137  A    between atoms: _357  and  _358
REMARK  138  A    between atoms: _357  and  _360
REMARK  139  A    between atoms: _360  and  _361
REMARK  140  A    between atoms: _366  and  _367
REMARK  141  A    between atoms: _369  and  _371
REMARK  142  A    between atoms: _371  and  _372
REMARK  143  A    between atoms: _371  and  _374
REMARK  144  A    between atoms: _374  and  _375
REMARK  145  A    between atoms: _377  and  _379
REMARK  146  A    between atoms: _379  and  _380
REMARK  147  A    between atoms: _379  and  _382
REMARK  148  A    between atoms: _382  and  _383
REMARK                            x       y       z     vdW  Elec       q    Type
REMARK                         _______ _______ _______ _____ _____    ______ ____
ROOT
ATOM      1  O   HOH     1      50.162  85.888  -9.749  0.00  0.00    +0.000 OA
ENDROOT
TORSDOF 0
REMARK  Name = ../refined-set-2016/1tog/1tog_pocket.pdb
REMARK  148 active torsions:
REMARK  status: ('A' for Active; 'I' for Inactive)
REMARK    1  A    between atoms: _1  and  _3
REMARK    2  A    between atoms: _3  and  _4
REMARK    3  A    between atoms: _3  and  _6
REMARK    4  A    between atoms: _6  and  _7
REMARK    5  A    between atoms: _11  and  _12
REMARK    6  A    between atoms: _17  and  _19
REMARK    7  A    between atoms: _19  and  _20
REMARK    8  A    between atoms: _19  and  _22
REMARK    9  A    between atoms: _22  and  _23
REMARK   10  A    between atoms: _26  and  _28
REMARK   11  A    between atoms: _28  and  _29
REMARK   12  A    between atoms: _28  and  _31
REMARK   13  A    between atoms: _31  and  _32
REMARK   14  A    between atoms: _35  and  _37
REMARK   15  A    between atoms: _37  and  _38
REMARK   16  A    between atoms: _40  and  _42
REMARK   17  A    between atoms: _42  and  _43
REMARK   18  A    between atoms: _42  and  _45
REMARK   19  A    between atoms: _45  and  _46
REMARK   20  A    between atoms: _49  and  _51
REMARK   21  A    between atoms: _51  and  _52
REMARK   22  A    between atoms: _51  and  _54
REMARK   23  A    between atoms: _54  and  _55
REMARK   24  A    between atoms: _58  and  _60
REMARK   25  A    between atoms: _60  and  _61
REMARK   26  A    between atoms: _63  and  _65
REMARK   27  A    between atoms: _65  and  _66
REMARK   28  A    between atoms: _65  and  _68
REMARK   29  A    between atoms: _68  and  _69
REMARK   30  A    between atoms: _72  and  _74
REMARK   31  A    between atoms: _74  and  _75
REMARK   32  A    between atoms: _77  and  _79
REMARK   33  A    between atoms: _79  and  _80
REMARK   34  A    between atoms: _79  and  _82
REMARK   35  A    between atoms: _85  and  _87
REMARK   36  A    between atoms: _87  and  _88
REMARK   37  A    between atoms: _90  and  _92
REMARK   38  A    between atoms: _92  and  _93
REMARK   39  A    between atoms: _92  and  _95
REMARK   40  A    between atoms: _95  and  _96
REMARK   41  A    between atoms: _98  and  _100
REMARK   42  A    between atoms: _100  and  _101
REMARK   43  A    between atoms: _103  and  _105
REMARK   44  A    between atoms: _105  and  _106
REMARK   45  A    between atoms: _105  and  _108
REMARK   46  A    between atoms: _108  and  _109
REMARK   47  A    between atoms: _112  and  _114
REMARK   48  A    between atoms: _114  and  _115
REMARK   49  A    between atoms: _114  and  _117
REMARK   50  A    between atoms: _117  and  _118
REMARK   51  A    between atoms: _129  and  _130
REMARK   52  A    between atoms: _135  and  _137
REMARK   53  A    between atoms: _137  and  _138
REMARK   54  A    between atoms: _137  and  _140
REMARK   55  A    between atoms: _140  and  _141
REMARK   56  A    between atoms: _146  and  _148
REMARK   57  A    between atoms: _148  and  _149
REMARK   58  A    between atoms: _148  and  _151
REMARK   59  A    between atoms: _151  and  _152
REMARK   60  A    between atoms: _158  and  _159
REMARK   61  A    between atoms: _164  and  _166
REMARK   62  A    between atoms: _166  and  _167
REMARK   63  A    between atoms: _170  and  _172
REMARK   64  A    between atoms: _172  and  _173
REMARK   65  A    between atoms: _172  and  _175
REMARK   66  A    between atoms: _175  and  _176
REMARK   67  A    between atoms: _181  and  _182
REMARK   68  A    between atoms: _184  and  _186
REMARK   69  A    between atoms: _186  and  _187
REMARK   70  A    between atoms: _186  and  _189
REMARK   71  A    between atoms: _189  and  _190
REMARK   72  A    between atoms: _192  and  _194
REMARK   73  A    between atoms: _194  and  _195
REMARK   74  A    between atoms: _194  and  _197
REMARK   75  A    between atoms: _197  and  _198
REMARK   76  A    between atoms: _205  and  _206
REMARK   77  A    between atoms: _206  and  _222
REMARK   78  A    between atoms: _207  and  _209
REMARK   79  A    between atoms: _209  and  _210
REMARK   80  A    between atoms: _210  and  _211
REMARK   81  A    between atoms: _215  and  _217
REMARK   82  A    between atoms: _217  and  _218
REMARK   83  A    between atoms: _217  and  _225
REMARK   84  A    between atoms: _218  and  _219
REMARK   85  A    between atoms: _219  and  _220
REMARK   86  A    between atoms: _220  and  _221
REMARK   87  A    between atoms: _221  and  _222
REMARK   88  A    between atoms: _227  and  _229
REMARK   89  A    between atoms: _229  and  _230
REMARK   90  A    between atoms: _229  and  _232
REMARK   91  A    between atoms: _232  and  _233
REMARK   92  A    between atoms: _238  and  _239
REMARK   93  A    between atoms: _241  and  _243
REMARK   94  A    between atoms: _243  and  _244
REMARK   95  A    between atoms: _243  and  _246
REMARK   96  A    between atoms: _246  and  _247
REMARK   97  A    between atoms: _247  and  _248
REMARK   98  A    between atoms: _248  and  _249
REMARK   99  A    between atoms: _258  and  _260
REMARK  100  A    between atoms: _260  and  _261
REMARK  101  A    between atoms: _260  and  _263
REMARK  102  A    between atoms: _263  and  _264
REMARK  103  A    between atoms: _264  and  _265
REMARK  104  A    between atoms: _267  and  _269
REMARK  105  A    between atoms: _269  and  _270
REMARK  106  A    between atoms: _269  and  _272
REMARK  107  A    between atoms: _272  and  _273
REMARK  108  A    between atoms: _279  and  _281
REMARK  109  A    between atoms: _281  and  _282
REMARK  110  A    between atoms: _281  and  _284
REMARK  111  A    between atoms: _287  and  _289
REMARK  112  A    between atoms: _289  and  _290
REMARK  113  A    between atoms: _289  and  _292
REMARK  114  A    between atoms: _292  and  _293
REMARK  115  A    between atoms: _293  and  _294
REMARK  116  A    between atoms: _294  and  _295
REMARK  117  A    between atoms: _304  and  _306
REMARK  118  A    between atoms: _306  and  _307
REMARK  119  A    between atoms: _306  and  _309
REMARK  120  A    between atoms: _309  and  _310
REMARK  121  A    between atoms: _315  and  _317
REMARK  122  A    between atoms: _317  and  _318
REMARK  123  A    between atoms: _317  and  _320
REMARK  124  A    between atoms: _320  and  _321
REMARK  125  A    between atoms: _326  and  _327
REMARK  126  A    between atoms: _329  and  _331
REMARK  127  A    between atoms: _331  and  _332
REMARK  128  A    between atoms: _331  and  _334
REMARK  129  A    between atoms: _334  and  _335
REMARK  130  A    between atoms: _338  and  _340
REMARK  131  A    between atoms: _340  and  _341
REMARK  132  A    between atoms: _340  and  _343
REMARK  133  A    between atoms: _343  and  _344
REMARK  134  A    between atoms: _344  and  _345
REMARK  135  A    between atoms: _345  and  _346
REMARK  136  A    between atoms: _355  and  _357
REMARK  137  A    between atoms: _357  and  _358
REMARK  138  A    between atoms: _357  and  _360
REMARK  139  A    between atoms: _360  and  _361
REMARK  140  A    between atoms: _366  and  _367
REMARK  141  A    between atoms: _369  and  _371
REMARK  142  A    between atoms: _371  and  _372
REMARK  143  A    between atoms: _371  and  _374
REMARK  144  A    between atoms: _374  and  _375
REMARK  145  A    between atoms: _377  and  _379
REMARK  146  A    between atoms: _379  and  _380
REMARK  147  A    between atoms: _379  and  _382
REMARK  148  A    between atoms: _382  and  _383
REMARK                            x       y       z     vdW  Elec       q    Type
REMARK                         _______ _______ _______ _____ _____    ______ ____
ROOT
ATOM      1  O   HOH     1      45.191  84.798 -10.004  0.00  0.00    +0.000 OA
ENDROOT
TORSDOF 0
