REMARK  Name = ../refined-set-2016/2p3i/2p3i_pocket.pdb
REMARK  99 active torsions:
REMARK  status: ('A' for Active; 'I' for Inactive)
REMARK    1  A    between atoms: _1  and  _3
REMARK    2  A    between atoms: _3  and  _4
REMARK    3  A    between atoms: _3  and  _6
REMARK    4  A    between atoms: _6  and  _7
REMARK    5  A    between atoms: _10  and  _12
REMARK    6  A    between atoms: _12  and  _13
REMARK    7  A    between atoms: _12  and  _15
REMARK    8  A    between atoms: _15  and  _16
REMARK    9  A    between atoms: _16  and  _17
REMARK   10  A    between atoms: _17  and  _18
REMARK   11  A    between atoms: _27  and  _29
REMARK   12  A    between atoms: _29  and  _30
REMARK   13  A    between atoms: _29  and  _32
REMARK   14  A    between atoms: _32  and  _33
REMARK   15  A    between atoms: _43  and  _45
REMARK   16  A    between atoms: _45  and  _46
REMARK   17  A    between atoms: _45  and  _48
REMARK   18  A    between atoms: _48  and  _49
REMARK   19  A    between atoms: _52  and  _54
REMARK   20  A    between atoms: _54  and  _55
REMARK   21  A    between atoms: _54  and  _57
REMARK   22  A    between atoms: _60  and  _62
REMARK   23  A    between atoms: _62  and  _63
REMARK   24  A    between atoms: _62  and  _65
REMARK   25  A    between atoms: _65  and  _66
REMARK   26  A    between atoms: _66  and  _67
REMARK   27  A    between atoms: _67  and  _68
REMARK   28  A    between atoms: _68  and  _69
REMARK   29  A    between atoms: _73  and  _75
REMARK   30  A    between atoms: _75  and  _76
REMARK   31  A    between atoms: _75  and  _78
REMARK   32  A    between atoms: _78  and  _79
REMARK   33  A    between atoms: _82  and  _84
REMARK   34  A    between atoms: _84  and  _85
REMARK   35  A    between atoms: _84  and  _87
REMARK   36  A    between atoms: _87  and  _88
REMARK   37  A    between atoms: _90  and  _92
REMARK   38  A    between atoms: _92  and  _93
REMARK   39  A    between atoms: _92  and  _95
REMARK   40  A    between atoms: _95  and  _96
REMARK   41  A    between atoms: _96  and  _97
REMARK   42  A    between atoms: _102  and  _104
REMARK   43  A    between atoms: _104  and  _105
REMARK   44  A    between atoms: _104  and  _107
REMARK   45  A    between atoms: _107  and  _108
REMARK   46  A    between atoms: _113  and  _114
REMARK   47  A    between atoms: _116  and  _118
REMARK   48  A    between atoms: _118  and  _119
REMARK   49  A    between atoms: _122  and  _123
REMARK   50  A    between atoms: _128  and  _130
REMARK   51  A    between atoms: _130  and  _131
REMARK   52  A    between atoms: _133  and  _135
REMARK   53  A    between atoms: _135  and  _136
REMARK   54  A    between atoms: _135  and  _138
REMARK   55  A    between atoms: _138  and  _139
REMARK   56  A    between atoms: _139  and  _140
REMARK   57  A    between atoms: _140  and  _141
REMARK   58  A    between atoms: _141  and  _142
REMARK   59  A    between atoms: _146  and  _148
REMARK   60  A    between atoms: _148  and  _149
REMARK   61  A    between atoms: _148  and  _151
REMARK   62  A    between atoms: _151  and  _152
REMARK   63  A    between atoms: _155  and  _157
REMARK   64  A    between atoms: _157  and  _158
REMARK   65  A    between atoms: _157  and  _160
REMARK   66  A    between atoms: _160  and  _161
REMARK   67  A    between atoms: _164  and  _166
REMARK   68  A    between atoms: _166  and  _167
REMARK   69  A    between atoms: _166  and  _169
REMARK   70  A    between atoms: _169  and  _170
REMARK   71  A    between atoms: _175  and  _177
REMARK   72  A    between atoms: _177  and  _178
REMARK   73  A    between atoms: _177  and  _180
REMARK   74  A    between atoms: _180  and  _181
REMARK   75  A    between atoms: _184  and  _186
REMARK   76  A    between atoms: _186  and  _187
REMARK   77  A    between atoms: _186  and  _189
REMARK   78  A    between atoms: _189  and  _190
REMARK   79  A    between atoms: _190  and  _191
REMARK   80  A    between atoms: _191  and  _192
REMARK   81  A    between atoms: _192  and  _193
REMARK   82  A    between atoms: _197  and  _199
REMARK   83  A    between atoms: _199  and  _200
REMARK   84  A    between atoms: _199  and  _202
REMARK   85  A    between atoms: _202  and  _203
REMARK   86  A    between atoms: _208  and  _209
REMARK   87  A    between atoms: _211  and  _213
REMARK   88  A    between atoms: _213  and  _214
REMARK   89  A    between atoms: _213  and  _216
REMARK   90  A    between atoms: _216  and  _217
REMARK   91  A    between atoms: _222  and  _223
REMARK   92  A    between atoms: _225  and  _227
REMARK   93  A    between atoms: _227  and  _228
REMARK   94  A    between atoms: _227  and  _230
REMARK   95  A    between atoms: _230  and  _231
REMARK   96  A    between atoms: _233  and  _235
REMARK   97  A    between atoms: _235  and  _236
REMARK   98  A    between atoms: _235  and  _238
REMARK   99  A    between atoms: _238  and  _239
REMARK                            x       y       z     vdW  Elec       q    Type
REMARK                         _______ _______ _______ _____ _____    ______ ____
ROOT
ATOM      1  CA  ARG A   2      35.951   4.987  13.916  0.00  0.00    +0.149 C 
ENDROOT
BRANCH   1   4
ATOM      2  C   ASP A   1      36.113   3.601  15.889  0.00  0.00    +0.239 C 
ATOM      3  O   ASP A   1      36.577   4.546  16.536  0.00  0.00    -0.274 OA
ATOM      4  N   ARG A   2      35.764   3.716  14.608  0.00  0.00    -0.297 N 
ATOM      5  H   ARG A   2      35.359   2.902  14.103  0.00  0.00    +0.150 HD
BRANCH   2   6
ATOM      6  CA  ASP A   1      35.869   2.258  16.564  0.00  0.00    +0.156 C 
BRANCH   6   7
ATOM      7  N   ASP A   1      35.551   1.147  15.658  0.00  0.00    -0.238 NA
ATOM      8  H   ASP A   1      36.159   0.953  14.837  0.00  0.00    +0.142 HD
ENDBRANCH   6   7
BRANCH   6   9
ATOM      9  CB  ASP A   1      37.012   1.898  17.542  0.00  0.00    +0.140 C 
BRANCH   9  10
ATOM     10  CG  ASP A   1      38.373   1.730  16.865  0.00  0.00    +0.367 C 
ATOM     11  OD2 ASP A   1      39.324   1.302  17.567  0.00  0.00    -0.246 OA
ATOM     12  OD1 ASP A   1      38.529   2.035  15.661  0.00  0.00    -0.246 OA
ENDBRANCH   9  10
ENDBRANCH   6   9
ENDBRANCH   2   6
ENDBRANCH   1   4
BRANCH   1  13
ATOM     13  C   ARG A   2      34.978   5.200  12.761  0.00  0.00    +0.241 C 
ATOM     14  N   TRP A   3      34.195   6.272  12.865  0.00  0.00    -0.298 N 
ATOM     15  H   TRP A   3      34.150   6.765  13.780  0.00  0.00    +0.150 HD
ATOM     16  O   ARG A   2      34.942   4.402  11.818  0.00  0.00    -0.273 OA
BRANCH  14  17
ATOM     17  CA  TRP A   3      33.396   6.789  11.756  0.00  0.00    +0.141 C 
BRANCH  17  18
ATOM     18  C   TRP A   3      33.857   8.226  11.549  0.00  0.00    +0.227 C 
ATOM     19  O   TRP A   3      34.007   8.988  12.512  0.00  0.00    -0.286 OA
ENDBRANCH  17  18
BRANCH  17  20
ATOM     20  CB  TRP A   3      31.895   6.786  12.095  0.00  0.00    +0.056 C 
BRANCH  20  21
ATOM     21  CG  TRP A   3      31.231   5.445  12.050  0.00  0.00    -0.002 A 
ATOM     22  CD2 TRP A   3      31.380   4.377  12.999  0.00  0.00    +0.013 A 
ATOM     23  CE3 TRP A   3      32.129   4.221  14.176  0.00  0.00    +0.001 A 
ATOM     24  CZ3 TRP A   3      32.042   3.009  14.871  0.00  0.00    +0.000 A 
ATOM     25  CH2 TRP A   3      31.214   1.957  14.402  0.00  0.00    +0.001 A 
ATOM     26  CZ2 TRP A   3      30.466   2.091  13.257  0.00  0.00    +0.017 A 
ATOM     27  CE2 TRP A   3      30.558   3.308  12.561  0.00  0.00    +0.056 A 
ATOM     28  NE1 TRP A   3      29.935   3.713  11.405  0.00  0.00    -0.352 N 
ATOM     29  HE1 TRP A   3      29.267   3.145  10.845  0.00  0.00    +0.166 HD
ATOM     30  CD1 TRP A   3      30.344   5.001  11.109  0.00  0.00    +0.068 A 
ENDBRANCH  20  21
ENDBRANCH  17  20
ENDBRANCH  14  17
ENDBRANCH   1  13
BRANCH   1  31
ATOM     31  CB  ARG A   2      37.404   5.116  13.422  0.00  0.00    +0.033 C 
BRANCH  31  32
ATOM     32  CG  ARG A   2      37.722   6.391  12.621  0.00  0.00    +0.045 C 
BRANCH  32  33
ATOM     33  CD  ARG A   2      37.686   7.644  13.506  0.00  0.00    +0.174 C 
BRANCH  33  34
ATOM     34  NE  ARG A   2      38.735   7.623  14.519  0.00  0.00    -0.265 N 
ATOM     35  CZ  ARG A   2      38.790   8.437  15.576  0.00  0.00    +0.342 C 
ATOM     36  NH2 ARG A   2      39.797   8.322  16.431  0.00  0.00    -0.292 N 
ATOM     37 HH21 ARG A   2      39.851   8.950  17.258  0.00  0.00    +0.255 HD
ATOM     38 HH22 ARG A   2      40.533   7.604  16.274  0.00  0.00    +0.255 HD
ATOM     39  NH1 ARG A   2      37.839   9.355  15.790  0.00  0.00    -0.292 N 
ATOM     40 HH11 ARG A   2      37.897   9.981  16.618  0.00  0.00    +0.255 HD
ATOM     41 HH12 ARG A   2      37.042   9.442  15.128  0.00  0.00    +0.255 HD
ATOM     42  HE  ARG A   2      39.496   6.923  14.410  0.00  0.00    +0.259 HD
ENDBRANCH  33  34
ENDBRANCH  32  33
ENDBRANCH  31  32
ENDBRANCH   1  31
TORSDOF 14
REMARK  Name = ../refined-set-2016/2p3i/2p3i_pocket.pdb
REMARK  99 active torsions:
REMARK  status: ('A' for Active; 'I' for Inactive)
REMARK    1  A    between atoms: _1  and  _3
REMARK    2  A    between atoms: _3  and  _4
REMARK    3  A    between atoms: _3  and  _6
REMARK    4  A    between atoms: _6  and  _7
REMARK    5  A    between atoms: _10  and  _12
REMARK    6  A    between atoms: _12  and  _13
REMARK    7  A    between atoms: _12  and  _15
REMARK    8  A    between atoms: _15  and  _16
REMARK    9  A    between atoms: _16  and  _17
REMARK   10  A    between atoms: _17  and  _18
REMARK   11  A    between atoms: _27  and  _29
REMARK   12  A    between atoms: _29  and  _30
REMARK   13  A    between atoms: _29  and  _32
REMARK   14  A    between atoms: _32  and  _33
REMARK   15  A    between atoms: _43  and  _45
REMARK   16  A    between atoms: _45  and  _46
REMARK   17  A    between atoms: _45  and  _48
REMARK   18  A    between atoms: _48  and  _49
REMARK   19  A    between atoms: _52  and  _54
REMARK   20  A    between atoms: _54  and  _55
REMARK   21  A    between atoms: _54  and  _57
REMARK   22  A    between atoms: _60  and  _62
REMARK   23  A    between atoms: _62  and  _63
REMARK   24  A    between atoms: _62  and  _65
REMARK   25  A    between atoms: _65  and  _66
REMARK   26  A    between atoms: _66  and  _67
REMARK   27  A    between atoms: _67  and  _68
REMARK   28  A    between atoms: _68  and  _69
REMARK   29  A    between atoms: _73  and  _75
REMARK   30  A    between atoms: _75  and  _76
REMARK   31  A    between atoms: _75  and  _78
REMARK   32  A    between atoms: _78  and  _79
REMARK   33  A    between atoms: _82  and  _84
REMARK   34  A    between atoms: _84  and  _85
REMARK   35  A    between atoms: _84  and  _87
REMARK   36  A    between atoms: _87  and  _88
REMARK   37  A    between atoms: _90  and  _92
REMARK   38  A    between atoms: _92  and  _93
REMARK   39  A    between atoms: _92  and  _95
REMARK   40  A    between atoms: _95  and  _96
REMARK   41  A    between atoms: _96  and  _97
REMARK   42  A    between atoms: _102  and  _104
REMARK   43  A    between atoms: _104  and  _105
REMARK   44  A    between atoms: _104  and  _107
REMARK   45  A    between atoms: _107  and  _108
REMARK   46  A    between atoms: _113  and  _114
REMARK   47  A    between atoms: _116  and  _118
REMARK   48  A    between atoms: _118  and  _119
REMARK   49  A    between atoms: _122  and  _123
REMARK   50  A    between atoms: _128  and  _130
REMARK   51  A    between atoms: _130  and  _131
REMARK   52  A    between atoms: _133  and  _135
REMARK   53  A    between atoms: _135  and  _136
REMARK   54  A    between atoms: _135  and  _138
REMARK   55  A    between atoms: _138  and  _139
REMARK   56  A    between atoms: _139  and  _140
REMARK   57  A    between atoms: _140  and  _141
REMARK   58  A    between atoms: _141  and  _142
REMARK   59  A    between atoms: _146  and  _148
REMARK   60  A    between atoms: _148  and  _149
REMARK   61  A    between atoms: _148  and  _151
REMARK   62  A    between atoms: _151  and  _152
REMARK   63  A    between atoms: _155  and  _157
REMARK   64  A    between atoms: _157  and  _158
REMARK   65  A    between atoms: _157  and  _160
REMARK   66  A    between atoms: _160  and  _161
REMARK   67  A    between atoms: _164  and  _166
REMARK   68  A    between atoms: _166  and  _167
REMARK   69  A    between atoms: _166  and  _169
REMARK   70  A    between atoms: _169  and  _170
REMARK   71  A    between atoms: _175  and  _177
REMARK   72  A    between atoms: _177  and  _178
REMARK   73  A    between atoms: _177  and  _180
REMARK   74  A    between atoms: _180  and  _181
REMARK   75  A    between atoms: _184  and  _186
REMARK   76  A    between atoms: _186  and  _187
REMARK   77  A    between atoms: _186  and  _189
REMARK   78  A    between atoms: _189  and  _190
REMARK   79  A    between atoms: _190  and  _191
REMARK   80  A    between atoms: _191  and  _192
REMARK   81  A    between atoms: _192  and  _193
REMARK   82  A    between atoms: _197  and  _199
REMARK   83  A    between atoms: _199  and  _200
REMARK   84  A    between atoms: _199  and  _202
REMARK   85  A    between atoms: _202  and  _203
REMARK   86  A    between atoms: _208  and  _209
REMARK   87  A    between atoms: _211  and  _213
REMARK   88  A    between atoms: _213  and  _214
REMARK   89  A    between atoms: _213  and  _216
REMARK   90  A    between atoms: _216  and  _217
REMARK   91  A    between atoms: _222  and  _223
REMARK   92  A    between atoms: _225  and  _227
REMARK   93  A    between atoms: _227  and  _228
REMARK   94  A    between atoms: _227  and  _230
REMARK   95  A    between atoms: _230  and  _231
REMARK   96  A    between atoms: _233  and  _235
REMARK   97  A    between atoms: _235  and  _236
REMARK   98  A    between atoms: _235  and  _238
REMARK   99  A    between atoms: _238  and  _239
REMARK                            x       y       z     vdW  Elec       q    Type
REMARK                         _______ _______ _______ _____ _____    ______ ____
ROOT
ATOM      1  CA  ASP A   1      35.295  16.453  10.402  0.00  0.00    +0.144 C 
ENDROOT
BRANCH   1   2
ATOM      2  N   ASP A   1      35.363  17.904  10.226  0.00  0.00    -0.239 NA
ATOM      3  H   ASP A   1      36.091  18.453  10.726  0.00  0.00    +0.142 HD
ENDBRANCH   1   2
BRANCH   1   4
ATOM      4  C   ASP A   1      34.329  16.142  11.531  0.00  0.00    +0.225 C 
ATOM      5  O   ASP A   1      34.459  16.690  12.624  0.00  0.00    -0.287 OA
ENDBRANCH   1   4
BRANCH   1   6
ATOM      6  CB  ASP A   1      36.650  15.879  10.770  0.00  0.00    +0.139 C 
BRANCH   6   7
ATOM      7  CG  ASP A   1      37.687  16.067   9.679  0.00  0.00    +0.367 C 
ATOM      8  OD2 ASP A   1      38.869  16.127  10.040  0.00  0.00    -0.246 OA
ATOM      9  OD1 ASP A   1      37.324  16.167   8.488  0.00  0.00    -0.246 OA
ENDBRANCH   6   7
ENDBRANCH   1   6
TORSDOF 4
REMARK  Name = ../refined-set-2016/2p3i/2p3i_pocket.pdb
REMARK  99 active torsions:
REMARK  status: ('A' for Active; 'I' for Inactive)
REMARK    1  A    between atoms: _1  and  _3
REMARK    2  A    between atoms: _3  and  _4
REMARK    3  A    between atoms: _3  and  _6
REMARK    4  A    between atoms: _6  and  _7
REMARK    5  A    between atoms: _10  and  _12
REMARK    6  A    between atoms: _12  and  _13
REMARK    7  A    between atoms: _12  and  _15
REMARK    8  A    between atoms: _15  and  _16
REMARK    9  A    between atoms: _16  and  _17
REMARK   10  A    between atoms: _17  and  _18
REMARK   11  A    between atoms: _27  and  _29
REMARK   12  A    between atoms: _29  and  _30
REMARK   13  A    between atoms: _29  and  _32
REMARK   14  A    between atoms: _32  and  _33
REMARK   15  A    between atoms: _43  and  _45
REMARK   16  A    between atoms: _45  and  _46
REMARK   17  A    between atoms: _45  and  _48
REMARK   18  A    between atoms: _48  and  _49
REMARK   19  A    between atoms: _52  and  _54
REMARK   20  A    between atoms: _54  and  _55
REMARK   21  A    between atoms: _54  and  _57
REMARK   22  A    between atoms: _60  and  _62
REMARK   23  A    between atoms: _62  and  _63
REMARK   24  A    between atoms: _62  and  _65
REMARK   25  A    between atoms: _65  and  _66
REMARK   26  A    between atoms: _66  and  _67
REMARK   27  A    between atoms: _67  and  _68
REMARK   28  A    between atoms: _68  and  _69
REMARK   29  A    between atoms: _73  and  _75
REMARK   30  A    between atoms: _75  and  _76
REMARK   31  A    between atoms: _75  and  _78
REMARK   32  A    between atoms: _78  and  _79
REMARK   33  A    between atoms: _82  and  _84
REMARK   34  A    between atoms: _84  and  _85
REMARK   35  A    between atoms: _84  and  _87
REMARK   36  A    between atoms: _87  and  _88
REMARK   37  A    between atoms: _90  and  _92
REMARK   38  A    between atoms: _92  and  _93
REMARK   39  A    between atoms: _92  and  _95
REMARK   40  A    between atoms: _95  and  _96
REMARK   41  A    between atoms: _96  and  _97
REMARK   42  A    between atoms: _102  and  _104
REMARK   43  A    between atoms: _104  and  _105
REMARK   44  A    between atoms: _104  and  _107
REMARK   45  A    between atoms: _107  and  _108
REMARK   46  A    between atoms: _113  and  _114
REMARK   47  A    between atoms: _116  and  _118
REMARK   48  A    between atoms: _118  and  _119
REMARK   49  A    between atoms: _122  and  _123
REMARK   50  A    between atoms: _128  and  _130
REMARK   51  A    between atoms: _130  and  _131
REMARK   52  A    between atoms: _133  and  _135
REMARK   53  A    between atoms: _135  and  _136
REMARK   54  A    between atoms: _135  and  _138
REMARK   55  A    between atoms: _138  and  _139
REMARK   56  A    between atoms: _139  and  _140
REMARK   57  A    between atoms: _140  and  _141
REMARK   58  A    between atoms: _141  and  _142
REMARK   59  A    between atoms: _146  and  _148
REMARK   60  A    between atoms: _148  and  _149
REMARK   61  A    between atoms: _148  and  _151
REMARK   62  A    between atoms: _151  and  _152
REMARK   63  A    between atoms: _155  and  _157
REMARK   64  A    between atoms: _157  and  _158
REMARK   65  A    between atoms: _157  and  _160
REMARK   66  A    between atoms: _160  and  _161
REMARK   67  A    between atoms: _164  and  _166
REMARK   68  A    between atoms: _166  and  _167
REMARK   69  A    between atoms: _166  and  _169
REMARK   70  A    between atoms: _169  and  _170
REMARK   71  A    between atoms: _175  and  _177
REMARK   72  A    between atoms: _177  and  _178
REMARK   73  A    between atoms: _177  and  _180
REMARK   74  A    between atoms: _180  and  _181
REMARK   75  A    between atoms: _184  and  _186
REMARK   76  A    between atoms: _186  and  _187
REMARK   77  A    between atoms: _186  and  _189
REMARK   78  A    between atoms: _189  and  _190
REMARK   79  A    between atoms: _190  and  _191
REMARK   80  A    between atoms: _191  and  _192
REMARK   81  A    between atoms: _192  and  _193
REMARK   82  A    between atoms: _197  and  _199
REMARK   83  A    between atoms: _199  and  _200
REMARK   84  A    between atoms: _199  and  _202
REMARK   85  A    between atoms: _202  and  _203
REMARK   86  A    between atoms: _208  and  _209
REMARK   87  A    between atoms: _211  and  _213
REMARK   88  A    between atoms: _213  and  _214
REMARK   89  A    between atoms: _213  and  _216
REMARK   90  A    between atoms: _216  and  _217
REMARK   91  A    between atoms: _222  and  _223
REMARK   92  A    between atoms: _225  and  _227
REMARK   93  A    between atoms: _227  and  _228
REMARK   94  A    between atoms: _227  and  _230
REMARK   95  A    between atoms: _230  and  _231
REMARK   96  A    between atoms: _233  and  _235
REMARK   97  A    between atoms: _235  and  _236
REMARK   98  A    between atoms: _235  and  _238
REMARK   99  A    between atoms: _238  and  _239
REMARK                            x       y       z     vdW  Elec       q    Type
REMARK                         _______ _______ _______ _____ _____    ______ ____
ROOT
ATOM      1  CA  LYS A   2      32.112   8.994  16.367  0.00  0.00    +0.149 C 
ENDROOT
BRANCH   1   4
ATOM      2  C   VAL A   1      32.696  11.042  15.230  0.00  0.00    +0.238 C 
ATOM      3  O   VAL A   1      32.238  11.745  16.130  0.00  0.00    -0.274 OA
ATOM      4  N   LYS A   2      32.549   9.724  15.186  0.00  0.00    -0.297 N 
ATOM      5  H   LYS A   2      32.747   9.210  14.304  0.00  0.00    +0.150 HD
BRANCH   2   6
ATOM      6  CA  VAL A   1      33.469  11.655  14.076  0.00  0.00    +0.145 C 
BRANCH   6   7
ATOM      7  CB  VAL A   1      35.010  11.575  14.377  0.00  0.00    +0.025 C 
ATOM      8  CG2 VAL A   1      35.352  12.135  15.749  0.00  0.00    +0.002 C 
ATOM      9  CG1 VAL A   1      35.831  12.281  13.280  0.00  0.00    +0.002 C 
ENDBRANCH   6   7
BRANCH   6  10
ATOM     10  N   VAL A   1      33.004  13.005  13.773  0.00  0.00    -0.238 NA
ATOM     11  H   VAL A   1      32.863  13.689  14.543  0.00  0.00    +0.142 HD
ENDBRANCH   6  10
ENDBRANCH   2   6
ENDBRANCH   1   4
BRANCH   1  12
ATOM     12  C   LYS A   2      33.044   7.800  16.537  0.00  0.00    +0.241 C 
ATOM     13  N   THR A   3      33.090   7.260  17.750  0.00  0.00    -0.296 N 
ATOM     14  H   THR A   3      32.415   7.570  18.478  0.00  0.00    +0.150 HD
ATOM     15  O   LYS A   2      33.728   7.397  15.588  0.00  0.00    -0.273 OA
BRANCH  13  16
ATOM     16  CA  THR A   3      34.076   6.239  18.070  0.00  0.00    +0.164 C 
BRANCH  16  17
ATOM     17  CB  THR A   3      35.059   6.731  19.133  0.00  0.00    +0.136 C 
ATOM     18  CG2 THR A   3      35.820   7.979  18.621  0.00  0.00    +0.034 C 
BRANCH  17  19
ATOM     19  OG1 THR A   3      34.330   7.062  20.324  0.00  0.00    -0.382 OA
ATOM     20  HG1 THR A   3      34.960   7.382  21.017  0.00  0.00    +0.210 HD
ENDBRANCH  17  19
ENDBRANCH  16  17
BRANCH  16  21
ATOM     21  C   THR A   3      33.434   4.918  18.492  0.00  0.00    +0.229 C 
ATOM     22  O   THR A   3      34.148   3.955  18.799  0.00  0.00    -0.286 OA
ENDBRANCH  16  21
ENDBRANCH  13  16
ENDBRANCH   1  12
BRANCH   1  23
ATOM     23  CB  LYS A   2      30.625   8.615  16.301  0.00  0.00    +0.029 C 
BRANCH  23  24
ATOM     24  CG  LYS A   2      30.229   7.688  15.186  0.00  0.00    +0.000 C 
BRANCH  24  25
ATOM     25  CD  LYS A   2      28.737   7.327  15.249  0.00  0.00    -0.024 C 
BRANCH  25  26
ATOM     26  CE  LYS A   2      28.355   6.535  14.015  0.00  0.00    -0.086 C 
BRANCH  26  27
ATOM     27  NZ  LYS A   2      26.934   6.074  14.046  0.00  0.00    +0.380 N 
ATOM     28  HZ1 LYS A   2      26.787   5.465  14.876  0.00  0.00    -0.089 HD
ATOM     29  HZ2 LYS A   2      26.304   6.900  14.104  0.00  0.00    -0.089 HD
ATOM     30  HZ3 LYS A   2      26.726   5.538  13.179  0.00  0.00    -0.089 HD
ENDBRANCH  26  27
ENDBRANCH  25  26
ENDBRANCH  24  25
ENDBRANCH  23  24
ENDBRANCH   1  23
TORSDOF 14
REMARK  Name = ../refined-set-2016/2p3i/2p3i_pocket.pdb
REMARK  99 active torsions:
REMARK  status: ('A' for Active; 'I' for Inactive)
REMARK    1  A    between atoms: _1  and  _3
REMARK    2  A    between atoms: _3  and  _4
REMARK    3  A    between atoms: _3  and  _6
REMARK    4  A    between atoms: _6  and  _7
REMARK    5  A    between atoms: _10  and  _12
REMARK    6  A    between atoms: _12  and  _13
REMARK    7  A    between atoms: _12  and  _15
REMARK    8  A    between atoms: _15  and  _16
REMARK    9  A    between atoms: _16  and  _17
REMARK   10  A    between atoms: _17  and  _18
REMARK   11  A    between atoms: _27  and  _29
REMARK   12  A    between atoms: _29  and  _30
REMARK   13  A    between atoms: _29  and  _32
REMARK   14  A    between atoms: _32  and  _33
REMARK   15  A    between atoms: _43  and  _45
REMARK   16  A    between atoms: _45  and  _46
REMARK   17  A    between atoms: _45  and  _48
REMARK   18  A    between atoms: _48  and  _49
REMARK   19  A    between atoms: _52  and  _54
REMARK   20  A    between atoms: _54  and  _55
REMARK   21  A    between atoms: _54  and  _57
REMARK   22  A    between atoms: _60  and  _62
REMARK   23  A    between atoms: _62  and  _63
REMARK   24  A    between atoms: _62  and  _65
REMARK   25  A    between atoms: _65  and  _66
REMARK   26  A    between atoms: _66  and  _67
REMARK   27  A    between atoms: _67  and  _68
REMARK   28  A    between atoms: _68  and  _69
REMARK   29  A    between atoms: _73  and  _75
REMARK   30  A    between atoms: _75  and  _76
REMARK   31  A    between atoms: _75  and  _78
REMARK   32  A    between atoms: _78  and  _79
REMARK   33  A    between atoms: _82  and  _84
REMARK   34  A    between atoms: _84  and  _85
REMARK   35  A    between atoms: _84  and  _87
REMARK   36  A    between atoms: _87  and  _88
REMARK   37  A    between atoms: _90  and  _92
REMARK   38  A    between atoms: _92  and  _93
REMARK   39  A    between atoms: _92  and  _95
REMARK   40  A    between atoms: _95  and  _96
REMARK   41  A    between atoms: _96  and  _97
REMARK   42  A    between atoms: _102  and  _104
REMARK   43  A    between atoms: _104  and  _105
REMARK   44  A    between atoms: _104  and  _107
REMARK   45  A    between atoms: _107  and  _108
REMARK   46  A    between atoms: _113  and  _114
REMARK   47  A    between atoms: _116  and  _118
REMARK   48  A    between atoms: _118  and  _119
REMARK   49  A    between atoms: _122  and  _123
REMARK   50  A    between atoms: _128  and  _130
REMARK   51  A    between atoms: _130  and  _131
REMARK   52  A    between atoms: _133  and  _135
REMARK   53  A    between atoms: _135  and  _136
REMARK   54  A    between atoms: _135  and  _138
REMARK   55  A    between atoms: _138  and  _139
REMARK   56  A    between atoms: _139  and  _140
REMARK   57  A    between atoms: _140  and  _141
REMARK   58  A    between atoms: _141  and  _142
REMARK   59  A    between atoms: _146  and  _148
REMARK   60  A    between atoms: _148  and  _149
REMARK   61  A    between atoms: _148  and  _151
REMARK   62  A    between atoms: _151  and  _152
REMARK   63  A    between atoms: _155  and  _157
REMARK   64  A    between atoms: _157  and  _158
REMARK   65  A    between atoms: _157  and  _160
REMARK   66  A    between atoms: _160  and  _161
REMARK   67  A    between atoms: _164  and  _166
REMARK   68  A    between atoms: _166  and  _167
REMARK   69  A    between atoms: _166  and  _169
REMARK   70  A    between atoms: _169  and  _170
REMARK   71  A    between atoms: _175  and  _177
REMARK   72  A    between atoms: _177  and  _178
REMARK   73  A    between atoms: _177  and  _180
REMARK   74  A    between atoms: _180  and  _181
REMARK   75  A    between atoms: _184  and  _186
REMARK   76  A    between atoms: _186  and  _187
REMARK   77  A    between atoms: _186  and  _189
REMARK   78  A    between atoms: _189  and  _190
REMARK   79  A    between atoms: _190  and  _191
REMARK   80  A    between atoms: _191  and  _192
REMARK   81  A    between atoms: _192  and  _193
REMARK   82  A    between atoms: _197  and  _199
REMARK   83  A    between atoms: _199  and  _200
REMARK   84  A    between atoms: _199  and  _202
REMARK   85  A    between atoms: _202  and  _203
REMARK   86  A    between atoms: _208  and  _209
REMARK   87  A    between atoms: _211  and  _213
REMARK   88  A    between atoms: _213  and  _214
REMARK   89  A    between atoms: _213  and  _216
REMARK   90  A    between atoms: _216  and  _217
REMARK   91  A    between atoms: _222  and  _223
REMARK   92  A    between atoms: _225  and  _227
REMARK   93  A    between atoms: _227  and  _228
REMARK   94  A    between atoms: _227  and  _230
REMARK   95  A    between atoms: _230  and  _231
REMARK   96  A    between atoms: _233  and  _235
REMARK   97  A    between atoms: _235  and  _236
REMARK   98  A    between atoms: _235  and  _238
REMARK   99  A    between atoms: _238  and  _239
REMARK                            x       y       z     vdW  Elec       q    Type
REMARK                         _______ _______ _______ _____ _____    ______ ____
ROOT
ATOM      1  CA  TYR A   3      37.152  18.400  15.107  0.00  0.00    +0.153 C 
ENDROOT
BRANCH   1   4
ATOM      2  C   GLN A   2      34.846  18.353  15.928  0.00  0.00    +0.241 C 
ATOM      3  O   GLN A   2      35.138  18.784  17.063  0.00  0.00    -0.273 OA
ATOM      4  N   TYR A   3      35.729  18.178  14.945  0.00  0.00    -0.297 N 
ATOM      5  H   TYR A   3      35.380  17.867  14.016  0.00  0.00    +0.150 HD
BRANCH   2   6
ATOM      6  CA  GLN A   2      33.406  18.019  15.570  0.00  0.00    +0.149 C 
BRANCH   6   8
ATOM      7  C   SER A   1      32.499  15.966  16.534  0.00  0.00    +0.241 C 
ATOM      8  N   GLN A   2      32.757  17.267  16.646  0.00  0.00    -0.297 N 
ATOM      9  H   GLN A   2      32.491  17.763  17.521  0.00  0.00    +0.150 HD
ATOM     10  O   SER A   1      32.798  15.303  15.550  0.00  0.00    -0.274 OA
BRANCH   7  11
ATOM     11  CA  SER A   1      31.789  15.309  17.706  0.00  0.00    +0.174 C 
BRANCH  11  12
ATOM     12  N   SER A   1      31.062  14.132  17.233  0.00  0.00    -0.236 NA
ATOM     13  H   SER A   1      31.608  13.333  16.852  0.00  0.00    +0.142 HD
ENDBRANCH  11  12
BRANCH  11  14
ATOM     14  CB  SER A   1      32.803  14.930  18.784  0.00  0.00    +0.163 C 
BRANCH  14  15
ATOM     15  OG  SER A   1      32.125  14.576  19.976  0.00  0.00    -0.380 OA
ATOM     16  H   SER A   1      32.787  14.332  20.671  0.00  0.00    +0.211 HD
ENDBRANCH  14  15
ENDBRANCH  11  14
ENDBRANCH   7  11
ENDBRANCH   6   8
BRANCH   6  17
ATOM     17  CB  GLN A   2      32.642  19.312  15.277  0.00  0.00    +0.039 C 
BRANCH  17  18
ATOM     18  CG  GLN A   2      31.250  19.090  14.708  0.00  0.00    +0.087 C 
BRANCH  18  19
ATOM     19  CD  GLN A   2      30.478  20.386  14.538  0.00  0.00    +0.219 C 
ATOM     20  NE2 GLN A   2      29.212  20.374  14.936  0.00  0.00    -0.329 N 
ATOM     21 HE21 GLN A   2      28.803  19.508  15.342  0.00  0.00    +0.145 HD
ATOM     22 HE22 GLN A   2      28.629  21.230  14.842  0.00  0.00    +0.145 HD
ATOM     23  OE1 GLN A   2      31.009  21.381  14.053  0.00  0.00    -0.275 OA
ENDBRANCH  18  19
ENDBRANCH  17  18
ENDBRANCH   6  17
ENDBRANCH   2   6
ENDBRANCH   1   4
BRANCH   1  24
ATOM     24  C   TYR A   3      37.767  19.102  13.913  0.00  0.00    +0.241 C 
ATOM     25  N   GLY A   4      38.835  19.818  14.251  0.00  0.00    -0.295 N 
ATOM     26  H   GLY A   4      38.967  20.028  15.261  0.00  0.00    +0.150 HD
ATOM     27  O   TYR A   3      37.273  19.005  12.767  0.00  0.00    -0.273 OA
BRANCH  25  28
ATOM     28  CA  GLY A   4      39.825  20.327  13.336  0.00  0.00    +0.176 C 
BRANCH  28  29
ATOM     29  C   GLY A   4      39.344  20.984  12.083  0.00  0.00    +0.246 C 
ATOM     30  N   PRO A   5      38.815  22.220  12.182  0.00  0.00    -0.273 N 
ATOM     31  CD  PRO A   5      38.601  23.162  13.292  0.00  0.00    +0.094 C 
ATOM     32  CG  PRO A   5      38.072  24.390  12.620  0.00  0.00    +0.024 C 
ATOM     33  CB  PRO A   5      37.467  23.934  11.315  0.00  0.00    +0.030 C 
ATOM     34  CA  PRO A   5      38.334  22.741  10.913  0.00  0.00    +0.140 C 
ATOM     35  O   GLY A   4      39.497  20.404  11.005  0.00  0.00    -0.273 OA
BRANCH  34  36
ATOM     36  C   PRO A   5      39.454  23.179   9.981  0.00  0.00    +0.227 C 
ATOM     37  O   PRO A   5      40.569  23.524  10.421  0.00  0.00    -0.286 OA
ENDBRANCH  34  36
ENDBRANCH  28  29
ENDBRANCH  25  28
ENDBRANCH   1  24
BRANCH   1  38
ATOM     38  CB  TYR A   3      37.912  17.086  15.292  0.00  0.00    +0.055 C 
BRANCH  38  39
ATOM     39  CG  TYR A   3      37.617  16.410  16.597  0.00  0.00    -0.020 A 
ATOM     40  CD2 TYR A   3      38.349  16.712  17.742  0.00  0.00    -0.001 A 
ATOM     41  CE2 TYR A   3      38.060  16.089  18.954  0.00  0.00    +0.036 A 
ATOM     42  CZ  TYR A   3      37.033  15.156  19.001  0.00  0.00    +0.134 A 
ATOM     43  CE1 TYR A   3      36.304  14.850  17.876  0.00  0.00    +0.036 A 
ATOM     44  CD1 TYR A   3      36.594  15.476  16.685  0.00  0.00    -0.001 A 
BRANCH  42  45
ATOM     45  OH  TYR A   3      36.704  14.506  20.170  0.00  0.00    -0.506 OA
ATOM     46  HH  TYR A   3      35.952  13.885  20.000  0.00  0.00    +0.292 HD
ENDBRANCH  42  45
ENDBRANCH  38  39
ENDBRANCH   1  38
TORSDOF 17
REMARK  Name = ../refined-set-2016/2p3i/2p3i_pocket.pdb
REMARK  99 active torsions:
REMARK  status: ('A' for Active; 'I' for Inactive)
REMARK    1  A    between atoms: _1  and  _3
REMARK    2  A    between atoms: _3  and  _4
REMARK    3  A    between atoms: _3  and  _6
REMARK    4  A    between atoms: _6  and  _7
REMARK    5  A    between atoms: _10  and  _12
REMARK    6  A    between atoms: _12  and  _13
REMARK    7  A    between atoms: _12  and  _15
REMARK    8  A    between atoms: _15  and  _16
REMARK    9  A    between atoms: _16  and  _17
REMARK   10  A    between atoms: _17  and  _18
REMARK   11  A    between atoms: _27  and  _29
REMARK   12  A    between atoms: _29  and  _30
REMARK   13  A    between atoms: _29  and  _32
REMARK   14  A    between atoms: _32  and  _33
REMARK   15  A    between atoms: _43  and  _45
REMARK   16  A    between atoms: _45  and  _46
REMARK   17  A    between atoms: _45  and  _48
REMARK   18  A    between atoms: _48  and  _49
REMARK   19  A    between atoms: _52  and  _54
REMARK   20  A    between atoms: _54  and  _55
REMARK   21  A    between atoms: _54  and  _57
REMARK   22  A    between atoms: _60  and  _62
REMARK   23  A    between atoms: _62  and  _63
REMARK   24  A    between atoms: _62  and  _65
REMARK   25  A    between atoms: _65  and  _66
REMARK   26  A    between atoms: _66  and  _67
REMARK   27  A    between atoms: _67  and  _68
REMARK   28  A    between atoms: _68  and  _69
REMARK   29  A    between atoms: _73  and  _75
REMARK   30  A    between atoms: _75  and  _76
REMARK   31  A    between atoms: _75  and  _78
REMARK   32  A    between atoms: _78  and  _79
REMARK   33  A    between atoms: _82  and  _84
REMARK   34  A    between atoms: _84  and  _85
REMARK   35  A    between atoms: _84  and  _87
REMARK   36  A    between atoms: _87  and  _88
REMARK   37  A    between atoms: _90  and  _92
REMARK   38  A    between atoms: _92  and  _93
REMARK   39  A    between atoms: _92  and  _95
REMARK   40  A    between atoms: _95  and  _96
REMARK   41  A    between atoms: _96  and  _97
REMARK   42  A    between atoms: _102  and  _104
REMARK   43  A    between atoms: _104  and  _105
REMARK   44  A    between atoms: _104  and  _107
REMARK   45  A    between atoms: _107  and  _108
REMARK   46  A    between atoms: _113  and  _114
REMARK   47  A    between atoms: _116  and  _118
REMARK   48  A    between atoms: _118  and  _119
REMARK   49  A    between atoms: _122  and  _123
REMARK   50  A    between atoms: _128  and  _130
REMARK   51  A    between atoms: _130  and  _131
REMARK   52  A    between atoms: _133  and  _135
REMARK   53  A    between atoms: _135  and  _136
REMARK   54  A    between atoms: _135  and  _138
REMARK   55  A    between atoms: _138  and  _139
REMARK   56  A    between atoms: _139  and  _140
REMARK   57  A    between atoms: _140  and  _141
REMARK   58  A    between atoms: _141  and  _142
REMARK   59  A    between atoms: _146  and  _148
REMARK   60  A    between atoms: _148  and  _149
REMARK   61  A    between atoms: _148  and  _151
REMARK   62  A    between atoms: _151  and  _152
REMARK   63  A    between atoms: _155  and  _157
REMARK   64  A    between atoms: _157  and  _158
REMARK   65  A    between atoms: _157  and  _160
REMARK   66  A    between atoms: _160  and  _161
REMARK   67  A    between atoms: _164  and  _166
REMARK   68  A    between atoms: _166  and  _167
REMARK   69  A    between atoms: _166  and  _169
REMARK   70  A    between atoms: _169  and  _170
REMARK   71  A    between atoms: _175  and  _177
REMARK   72  A    between atoms: _177  and  _178
REMARK   73  A    between atoms: _177  and  _180
REMARK   74  A    between atoms: _180  and  _181
REMARK   75  A    between atoms: _184  and  _186
REMARK   76  A    between atoms: _186  and  _187
REMARK   77  A    between atoms: _186  and  _189
REMARK   78  A    between atoms: _189  and  _190
REMARK   79  A    between atoms: _190  and  _191
REMARK   80  A    between atoms: _191  and  _192
REMARK   81  A    between atoms: _192  and  _193
REMARK   82  A    between atoms: _197  and  _199
REMARK   83  A    between atoms: _199  and  _200
REMARK   84  A    between atoms: _199  and  _202
REMARK   85  A    between atoms: _202  and  _203
REMARK   86  A    between atoms: _208  and  _209
REMARK   87  A    between atoms: _211  and  _213
REMARK   88  A    between atoms: _213  and  _214
REMARK   89  A    between atoms: _213  and  _216
REMARK   90  A    between atoms: _216  and  _217
REMARK   91  A    between atoms: _222  and  _223
REMARK   92  A    between atoms: _225  and  _227
REMARK   93  A    between atoms: _227  and  _228
REMARK   94  A    between atoms: _227  and  _230
REMARK   95  A    between atoms: _230  and  _231
REMARK   96  A    between atoms: _233  and  _235
REMARK   97  A    between atoms: _235  and  _236
REMARK   98  A    between atoms: _235  and  _238
REMARK   99  A    between atoms: _238  and  _239
REMARK                            x       y       z     vdW  Elec       q    Type
REMARK                         _______ _______ _______ _____ _____    ______ ____
ROOT
ATOM      1  CA  LYS A   2      45.524   6.802  11.570  0.00  0.00    +0.149 C 
ENDROOT
BRANCH   1   4
ATOM      2  C   GLY A   1      46.363   4.647  12.356  0.00  0.00    +0.240 C 
ATOM      3  O   GLY A   1      45.637   4.650  13.355  0.00  0.00    -0.274 OA
ATOM      4  N   LYS A   2      46.336   5.597  11.433  0.00  0.00    -0.297 N 
ATOM      5  H   LYS A   2      46.916   5.480  10.578  0.00  0.00    +0.150 HD
BRANCH   2   6
ATOM      6  CA  GLY A   1      47.342   3.510  12.111  0.00  0.00    +0.169 C 
BRANCH   6   7
ATOM      7  N   GLY A   1      48.312   3.775  11.055  0.00  0.00    -0.236 NA
ATOM      8  H   GLY A   1      48.152   3.384  10.105  0.00  0.00    +0.142 HD
ENDBRANCH   6   7
ENDBRANCH   2   6
ENDBRANCH   1   4
BRANCH   1   9
ATOM      9  C   LYS A   2      44.879   7.216  10.240  0.00  0.00    +0.241 C 
ATOM     10  N   ILE A   3      43.841   8.048  10.336  0.00  0.00    -0.298 N 
ATOM     11  H   ILE A   3      43.373   8.174  11.256  0.00  0.00    +0.150 HD
ATOM     12  O   LYS A   2      45.302   6.780   9.158  0.00  0.00    -0.273 OA
BRANCH  10  13
ATOM     13  CA  ILE A   3      43.349   8.785   9.178  0.00  0.00    +0.137 C 
BRANCH  13  14
ATOM     14  C   ILE A   3      43.818  10.224   9.367  0.00  0.00    +0.227 C 
ATOM     15  O   ILE A   3      43.600  10.805  10.440  0.00  0.00    -0.286 OA
ENDBRANCH  13  14
BRANCH  13  16
ATOM     16  CB  ILE A   3      41.816   8.732   9.063  0.00  0.00    +0.026 C 
ATOM     17  CG2 ILE A   3      41.317   9.715   7.980  0.00  0.00    +0.002 C 
BRANCH  16  18
ATOM     18  CG1 ILE A   3      41.365   7.302   8.740  0.00  0.00    +0.002 C 
ATOM     19  CD1 ILE A   3      39.852   7.106   8.796  0.00  0.00    +0.000 C 
ENDBRANCH  16  18
ENDBRANCH  13  16
ENDBRANCH  10  13
ENDBRANCH   1   9
BRANCH   1  20
ATOM     20  CB  LYS A   2      46.400   7.960  12.066  0.00  0.00    +0.029 C 
BRANCH  20  21
ATOM     21  CG  LYS A   2      47.214   7.659  13.310  0.00  0.00    +0.000 C 
BRANCH  21  22
ATOM     22  CD  LYS A   2      48.328   8.678  13.473  0.00  0.00    -0.024 C 
BRANCH  22  23
ATOM     23  CE  LYS A   2      49.235   8.299  14.625  0.00  0.00    -0.086 C 
BRANCH  23  24
ATOM     24  NZ  LYS A   2      50.371   7.475  14.147  0.00  0.00    +0.380 N 
ATOM     25  HZ1 LYS A   2      50.980   7.226  14.952  0.00  0.00    -0.089 HD
ATOM     26  HZ2 LYS A   2      50.006   6.607  13.705  0.00  0.00    -0.089 HD
ATOM     27  HZ3 LYS A   2      50.921   8.016  13.449  0.00  0.00    -0.089 HD
ENDBRANCH  23  24
ENDBRANCH  22  23
ENDBRANCH  21  22
ENDBRANCH  20  21
ENDBRANCH   1  20
TORSDOF 13
REMARK  Name = ../refined-set-2016/2p3i/2p3i_pocket.pdb
REMARK  99 active torsions:
REMARK  status: ('A' for Active; 'I' for Inactive)
REMARK    1  A    between atoms: _1  and  _3
REMARK    2  A    between atoms: _3  and  _4
REMARK    3  A    between atoms: _3  and  _6
REMARK    4  A    between atoms: _6  and  _7
REMARK    5  A    between atoms: _10  and  _12
REMARK    6  A    between atoms: _12  and  _13
REMARK    7  A    between atoms: _12  and  _15
REMARK    8  A    between atoms: _15  and  _16
REMARK    9  A    between atoms: _16  and  _17
REMARK   10  A    between atoms: _17  and  _18
REMARK   11  A    between atoms: _27  and  _29
REMARK   12  A    between atoms: _29  and  _30
REMARK   13  A    between atoms: _29  and  _32
REMARK   14  A    between atoms: _32  and  _33
REMARK   15  A    between atoms: _43  and  _45
REMARK   16  A    between atoms: _45  and  _46
REMARK   17  A    between atoms: _45  and  _48
REMARK   18  A    between atoms: _48  and  _49
REMARK   19  A    between atoms: _52  and  _54
REMARK   20  A    between atoms: _54  and  _55
REMARK   21  A    between atoms: _54  and  _57
REMARK   22  A    between atoms: _60  and  _62
REMARK   23  A    between atoms: _62  and  _63
REMARK   24  A    between atoms: _62  and  _65
REMARK   25  A    between atoms: _65  and  _66
REMARK   26  A    between atoms: _66  and  _67
REMARK   27  A    between atoms: _67  and  _68
REMARK   28  A    between atoms: _68  and  _69
REMARK   29  A    between atoms: _73  and  _75
REMARK   30  A    between atoms: _75  and  _76
REMARK   31  A    between atoms: _75  and  _78
REMARK   32  A    between atoms: _78  and  _79
REMARK   33  A    between atoms: _82  and  _84
REMARK   34  A    between atoms: _84  and  _85
REMARK   35  A    between atoms: _84  and  _87
REMARK   36  A    between atoms: _87  and  _88
REMARK   37  A    between atoms: _90  and  _92
REMARK   38  A    between atoms: _92  and  _93
REMARK   39  A    between atoms: _92  and  _95
REMARK   40  A    between atoms: _95  and  _96
REMARK   41  A    between atoms: _96  and  _97
REMARK   42  A    between atoms: _102  and  _104
REMARK   43  A    between atoms: _104  and  _105
REMARK   44  A    between atoms: _104  and  _107
REMARK   45  A    between atoms: _107  and  _108
REMARK   46  A    between atoms: _113  and  _114
REMARK   47  A    between atoms: _116  and  _118
REMARK   48  A    between atoms: _118  and  _119
REMARK   49  A    between atoms: _122  and  _123
REMARK   50  A    between atoms: _128  and  _130
REMARK   51  A    between atoms: _130  and  _131
REMARK   52  A    between atoms: _133  and  _135
REMARK   53  A    between atoms: _135  and  _136
REMARK   54  A    between atoms: _135  and  _138
REMARK   55  A    between atoms: _138  and  _139
REMARK   56  A    between atoms: _139  and  _140
REMARK   57  A    between atoms: _140  and  _141
REMARK   58  A    between atoms: _141  and  _142
REMARK   59  A    between atoms: _146  and  _148
REMARK   60  A    between atoms: _148  and  _149
REMARK   61  A    between atoms: _148  and  _151
REMARK   62  A    between atoms: _151  and  _152
REMARK   63  A    between atoms: _155  and  _157
REMARK   64  A    between atoms: _157  and  _158
REMARK   65  A    between atoms: _157  and  _160
REMARK   66  A    between atoms: _160  and  _161
REMARK   67  A    between atoms: _164  and  _166
REMARK   68  A    between atoms: _166  and  _167
REMARK   69  A    between atoms: _166  and  _169
REMARK   70  A    between atoms: _169  and  _170
REMARK   71  A    between atoms: _175  and  _177
REMARK   72  A    between atoms: _177  and  _178
REMARK   73  A    between atoms: _177  and  _180
REMARK   74  A    between atoms: _180  and  _181
REMARK   75  A    between atoms: _184  and  _186
REMARK   76  A    between atoms: _186  and  _187
REMARK   77  A    between atoms: _186  and  _189
REMARK   78  A    between atoms: _189  and  _190
REMARK   79  A    between atoms: _190  and  _191
REMARK   80  A    between atoms: _191  and  _192
REMARK   81  A    between atoms: _192  and  _193
REMARK   82  A    between atoms: _197  and  _199
REMARK   83  A    between atoms: _199  and  _200
REMARK   84  A    between atoms: _199  and  _202
REMARK   85  A    between atoms: _202  and  _203
REMARK   86  A    between atoms: _208  and  _209
REMARK   87  A    between atoms: _211  and  _213
REMARK   88  A    between atoms: _213  and  _214
REMARK   89  A    between atoms: _213  and  _216
REMARK   90  A    between atoms: _216  and  _217
REMARK   91  A    between atoms: _222  and  _223
REMARK   92  A    between atoms: _225  and  _227
REMARK   93  A    between atoms: _227  and  _228
REMARK   94  A    between atoms: _227  and  _230
REMARK   95  A    between atoms: _230  and  _231
REMARK   96  A    between atoms: _233  and  _235
REMARK   97  A    between atoms: _235  and  _236
REMARK   98  A    between atoms: _235  and  _238
REMARK   99  A    between atoms: _238  and  _239
REMARK                            x       y       z     vdW  Elec       q    Type
REMARK                         _______ _______ _______ _____ _____    ______ ____
ROOT
ATOM      1  CA  THR A   1      43.070  15.260   7.126  0.00  0.00    +0.160 C 
ENDROOT
BRANCH   1   2
ATOM      2  N   THR A   1      43.757  14.277   7.954  0.00  0.00    -0.237 NA
ATOM      3  H   THR A   1      44.054  14.535   8.917  0.00  0.00    +0.142 HD
ENDBRANCH   1   2
BRANCH   1   4
ATOM      4  CB  THR A   1      41.581  15.434   7.508  0.00  0.00    +0.134 C 
ATOM      5  CG2 THR A   1      40.809  14.103   7.426  0.00  0.00    +0.034 C 
BRANCH   4   6
ATOM      6  OG1 THR A   1      41.477  15.963   8.833  0.00  0.00    -0.383 OA
ATOM      7  HG1 THR A   1      40.522  16.071   9.070  0.00  0.00    +0.210 HD
ENDBRANCH   4   6
ENDBRANCH   1   4
BRANCH   1   8
ATOM      8  C   THR A   1      43.785  16.610   7.246  0.00  0.00    +0.227 C 
ATOM      9  O   THR A   1      44.629  16.804   8.132  0.00  0.00    -0.287 OA
ENDBRANCH   1   8
TORSDOF 4
REMARK  Name = ../refined-set-2016/2p3i/2p3i_pocket.pdb
REMARK  99 active torsions:
REMARK  status: ('A' for Active; 'I' for Inactive)
REMARK    1  A    between atoms: _1  and  _3
REMARK    2  A    between atoms: _3  and  _4
REMARK    3  A    between atoms: _3  and  _6
REMARK    4  A    between atoms: _6  and  _7
REMARK    5  A    between atoms: _10  and  _12
REMARK    6  A    between atoms: _12  and  _13
REMARK    7  A    between atoms: _12  and  _15
REMARK    8  A    between atoms: _15  and  _16
REMARK    9  A    between atoms: _16  and  _17
REMARK   10  A    between atoms: _17  and  _18
REMARK   11  A    between atoms: _27  and  _29
REMARK   12  A    between atoms: _29  and  _30
REMARK   13  A    between atoms: _29  and  _32
REMARK   14  A    between atoms: _32  and  _33
REMARK   15  A    between atoms: _43  and  _45
REMARK   16  A    between atoms: _45  and  _46
REMARK   17  A    between atoms: _45  and  _48
REMARK   18  A    between atoms: _48  and  _49
REMARK   19  A    between atoms: _52  and  _54
REMARK   20  A    between atoms: _54  and  _55
REMARK   21  A    between atoms: _54  and  _57
REMARK   22  A    between atoms: _60  and  _62
REMARK   23  A    between atoms: _62  and  _63
REMARK   24  A    between atoms: _62  and  _65
REMARK   25  A    between atoms: _65  and  _66
REMARK   26  A    between atoms: _66  and  _67
REMARK   27  A    between atoms: _67  and  _68
REMARK   28  A    between atoms: _68  and  _69
REMARK   29  A    between atoms: _73  and  _75
REMARK   30  A    between atoms: _75  and  _76
REMARK   31  A    between atoms: _75  and  _78
REMARK   32  A    between atoms: _78  and  _79
REMARK   33  A    between atoms: _82  and  _84
REMARK   34  A    between atoms: _84  and  _85
REMARK   35  A    between atoms: _84  and  _87
REMARK   36  A    between atoms: _87  and  _88
REMARK   37  A    between atoms: _90  and  _92
REMARK   38  A    between atoms: _92  and  _93
REMARK   39  A    between atoms: _92  and  _95
REMARK   40  A    between atoms: _95  and  _96
REMARK   41  A    between atoms: _96  and  _97
REMARK   42  A    between atoms: _102  and  _104
REMARK   43  A    between atoms: _104  and  _105
REMARK   44  A    between atoms: _104  and  _107
REMARK   45  A    between atoms: _107  and  _108
REMARK   46  A    between atoms: _113  and  _114
REMARK   47  A    between atoms: _116  and  _118
REMARK   48  A    between atoms: _118  and  _119
REMARK   49  A    between atoms: _122  and  _123
REMARK   50  A    between atoms: _128  and  _130
REMARK   51  A    between atoms: _130  and  _131
REMARK   52  A    between atoms: _133  and  _135
REMARK   53  A    between atoms: _135  and  _136
REMARK   54  A    between atoms: _135  and  _138
REMARK   55  A    between atoms: _138  and  _139
REMARK   56  A    between atoms: _139  and  _140
REMARK   57  A    between atoms: _140  and  _141
REMARK   58  A    between atoms: _141  and  _142
REMARK   59  A    between atoms: _146  and  _148
REMARK   60  A    between atoms: _148  and  _149
REMARK   61  A    between atoms: _148  and  _151
REMARK   62  A    between atoms: _151  and  _152
REMARK   63  A    between atoms: _155  and  _157
REMARK   64  A    between atoms: _157  and  _158
REMARK   65  A    between atoms: _157  and  _160
REMARK   66  A    between atoms: _160  and  _161
REMARK   67  A    between atoms: _164  and  _166
REMARK   68  A    between atoms: _166  and  _167
REMARK   69  A    between atoms: _166  and  _169
REMARK   70  A    between atoms: _169  and  _170
REMARK   71  A    between atoms: _175  and  _177
REMARK   72  A    between atoms: _177  and  _178
REMARK   73  A    between atoms: _177  and  _180
REMARK   74  A    between atoms: _180  and  _181
REMARK   75  A    between atoms: _184  and  _186
REMARK   76  A    between atoms: _186  and  _187
REMARK   77  A    between atoms: _186  and  _189
REMARK   78  A    between atoms: _189  and  _190
REMARK   79  A    between atoms: _190  and  _191
REMARK   80  A    between atoms: _191  and  _192
REMARK   81  A    between atoms: _192  and  _193
REMARK   82  A    between atoms: _197  and  _199
REMARK   83  A    between atoms: _199  and  _200
REMARK   84  A    between atoms: _199  and  _202
REMARK   85  A    between atoms: _202  and  _203
REMARK   86  A    between atoms: _208  and  _209
REMARK   87  A    between atoms: _211  and  _213
REMARK   88  A    between atoms: _213  and  _214
REMARK   89  A    between atoms: _213  and  _216
REMARK   90  A    between atoms: _216  and  _217
REMARK   91  A    between atoms: _222  and  _223
REMARK   92  A    between atoms: _225  and  _227
REMARK   93  A    between atoms: _227  and  _228
REMARK   94  A    between atoms: _227  and  _230
REMARK   95  A    between atoms: _230  and  _231
REMARK   96  A    between atoms: _233  and  _235
REMARK   97  A    between atoms: _235  and  _236
REMARK   98  A    between atoms: _235  and  _238
REMARK   99  A    between atoms: _238  and  _239
REMARK                            x       y       z     vdW  Elec       q    Type
REMARK                         _______ _______ _______ _____ _____    ______ ____
ROOT
ATOM      1  CB  ASN A   1      43.621  20.957  10.381  0.00  0.00    +0.110 C 
ENDROOT
BRANCH   1   2
ATOM      2  CG  ASN A   1      44.903  21.235  11.089  0.00  0.00    +0.221 C 
ATOM      3  OD1 ASN A   1      44.914  21.772  12.195  0.00  0.00    -0.275 OA
ATOM      4  ND2 ASN A   1      45.997  20.872  10.468  0.00  0.00    -0.329 N 
ATOM      5 HD21 ASN A   1      46.924  21.035  10.910  0.00  0.00    +0.145 HD
ATOM      6 HD22 ASN A   1      45.939  20.421   9.533  0.00  0.00    +0.145 HD
ENDBRANCH   1   2
BRANCH   1   7
ATOM      7  CA  ASN A   1      43.536  21.627   8.999  0.00  0.00    +0.142 C 
BRANCH   7   8
ATOM      8  N   ASN A   1      44.013  20.822   7.887  0.00  0.00    -0.239 NA
ATOM      9  H   ASN A   1      44.901  21.087   7.416  0.00  0.00    +0.142 HD
ENDBRANCH   7   8
BRANCH   7  10
ATOM     10  C   ASN A   1      44.100  23.041   8.918  0.00  0.00    +0.225 C 
ATOM     11  O   ASN A   1      45.112  23.265   8.242  0.00  0.00    -0.287 OA
ENDBRANCH   7  10
ENDBRANCH   1   7
TORSDOF 4
REMARK  Name = ../refined-set-2016/2p3i/2p3i_pocket.pdb
REMARK  99 active torsions:
REMARK  status: ('A' for Active; 'I' for Inactive)
REMARK    1  A    between atoms: _1  and  _3
REMARK    2  A    between atoms: _3  and  _4
REMARK    3  A    between atoms: _3  and  _6
REMARK    4  A    between atoms: _6  and  _7
REMARK    5  A    between atoms: _10  and  _12
REMARK    6  A    between atoms: _12  and  _13
REMARK    7  A    between atoms: _12  and  _15
REMARK    8  A    between atoms: _15  and  _16
REMARK    9  A    between atoms: _16  and  _17
REMARK   10  A    between atoms: _17  and  _18
REMARK   11  A    between atoms: _27  and  _29
REMARK   12  A    between atoms: _29  and  _30
REMARK   13  A    between atoms: _29  and  _32
REMARK   14  A    between atoms: _32  and  _33
REMARK   15  A    between atoms: _43  and  _45
REMARK   16  A    between atoms: _45  and  _46
REMARK   17  A    between atoms: _45  and  _48
REMARK   18  A    between atoms: _48  and  _49
REMARK   19  A    between atoms: _52  and  _54
REMARK   20  A    between atoms: _54  and  _55
REMARK   21  A    between atoms: _54  and  _57
REMARK   22  A    between atoms: _60  and  _62
REMARK   23  A    between atoms: _62  and  _63
REMARK   24  A    between atoms: _62  and  _65
REMARK   25  A    between atoms: _65  and  _66
REMARK   26  A    between atoms: _66  and  _67
REMARK   27  A    between atoms: _67  and  _68
REMARK   28  A    between atoms: _68  and  _69
REMARK   29  A    between atoms: _73  and  _75
REMARK   30  A    between atoms: _75  and  _76
REMARK   31  A    between atoms: _75  and  _78
REMARK   32  A    between atoms: _78  and  _79
REMARK   33  A    between atoms: _82  and  _84
REMARK   34  A    between atoms: _84  and  _85
REMARK   35  A    between atoms: _84  and  _87
REMARK   36  A    between atoms: _87  and  _88
REMARK   37  A    between atoms: _90  and  _92
REMARK   38  A    between atoms: _92  and  _93
REMARK   39  A    between atoms: _92  and  _95
REMARK   40  A    between atoms: _95  and  _96
REMARK   41  A    between atoms: _96  and  _97
REMARK   42  A    between atoms: _102  and  _104
REMARK   43  A    between atoms: _104  and  _105
REMARK   44  A    between atoms: _104  and  _107
REMARK   45  A    between atoms: _107  and  _108
REMARK   46  A    between atoms: _113  and  _114
REMARK   47  A    between atoms: _116  and  _118
REMARK   48  A    between atoms: _118  and  _119
REMARK   49  A    between atoms: _122  and  _123
REMARK   50  A    between atoms: _128  and  _130
REMARK   51  A    between atoms: _130  and  _131
REMARK   52  A    between atoms: _133  and  _135
REMARK   53  A    between atoms: _135  and  _136
REMARK   54  A    between atoms: _135  and  _138
REMARK   55  A    between atoms: _138  and  _139
REMARK   56  A    between atoms: _139  and  _140
REMARK   57  A    between atoms: _140  and  _141
REMARK   58  A    between atoms: _141  and  _142
REMARK   59  A    between atoms: _146  and  _148
REMARK   60  A    between atoms: _148  and  _149
REMARK   61  A    between atoms: _148  and  _151
REMARK   62  A    between atoms: _151  and  _152
REMARK   63  A    between atoms: _155  and  _157
REMARK   64  A    between atoms: _157  and  _158
REMARK   65  A    between atoms: _157  and  _160
REMARK   66  A    between atoms: _160  and  _161
REMARK   67  A    between atoms: _164  and  _166
REMARK   68  A    between atoms: _166  and  _167
REMARK   69  A    between atoms: _166  and  _169
REMARK   70  A    between atoms: _169  and  _170
REMARK   71  A    between atoms: _175  and  _177
REMARK   72  A    between atoms: _177  and  _178
REMARK   73  A    between atoms: _177  and  _180
REMARK   74  A    between atoms: _180  and  _181
REMARK   75  A    between atoms: _184  and  _186
REMARK   76  A    between atoms: _186  and  _187
REMARK   77  A    between atoms: _186  and  _189
REMARK   78  A    between atoms: _189  and  _190
REMARK   79  A    between atoms: _190  and  _191
REMARK   80  A    between atoms: _191  and  _192
REMARK   81  A    between atoms: _192  and  _193
REMARK   82  A    between atoms: _197  and  _199
REMARK   83  A    between atoms: _199  and  _200
REMARK   84  A    between atoms: _199  and  _202
REMARK   85  A    between atoms: _202  and  _203
REMARK   86  A    between atoms: _208  and  _209
REMARK   87  A    between atoms: _211  and  _213
REMARK   88  A    between atoms: _213  and  _214
REMARK   89  A    between atoms: _213  and  _216
REMARK   90  A    between atoms: _216  and  _217
REMARK   91  A    between atoms: _222  and  _223
REMARK   92  A    between atoms: _225  and  _227
REMARK   93  A    between atoms: _227  and  _228
REMARK   94  A    between atoms: _227  and  _230
REMARK   95  A    between atoms: _230  and  _231
REMARK   96  A    between atoms: _233  and  _235
REMARK   97  A    between atoms: _235  and  _236
REMARK   98  A    between atoms: _235  and  _238
REMARK   99  A    between atoms: _238  and  _239
REMARK                            x       y       z     vdW  Elec       q    Type
REMARK                         _______ _______ _______ _____ _____    ______ ____
ROOT
ATOM      1  CA  TYR A   3      45.007  12.832  12.513  0.00  0.00    +0.153 C 
ENDROOT
BRANCH   1   3
ATOM      2  C   LYS A   2      45.442  15.030  11.649  0.00  0.00    +0.241 C 
ATOM      3  N   TYR A   3      45.322  14.245  12.713  0.00  0.00    -0.297 N 
ATOM      4  H   TYR A   3      45.450  14.629  13.671  0.00  0.00    +0.150 HD
ATOM      5  O   LYS A   2      45.261  14.612  10.499  0.00  0.00    -0.273 OA
BRANCH   2   6
ATOM      6  CA  LYS A   2      45.807  16.492  11.889  0.00  0.00    +0.149 C 
BRANCH   6   9
ATOM      7  C   THR A   1      47.215  17.904  10.420  0.00  0.00    +0.241 C 
ATOM      8  O   THR A   1      47.898  18.353  11.360  0.00  0.00    -0.274 OA
ATOM      9  N   LYS A   2      46.211  17.043  10.587  0.00  0.00    -0.297 N 
ATOM     10  H   LYS A   2      45.681  16.742   9.744  0.00  0.00    +0.150 HD
BRANCH   7  11
ATOM     11  CA  THR A   1      47.504  18.326   8.971  0.00  0.00    +0.172 C 
BRANCH  11  12
ATOM     12  N   THR A   1      48.306  19.555   8.937  0.00  0.00    -0.236 NA
ATOM     13  H   THR A   1      49.216  19.585   9.439  0.00  0.00    +0.142 HD
ENDBRANCH  11  12
BRANCH  11  14
ATOM     14  CB  THR A   1      48.200  17.172   8.236  0.00  0.00    +0.135 C 
ATOM     15  CG2 THR A   1      48.384  17.507   6.756  0.00  0.00    +0.034 C 
BRANCH  14  16
ATOM     16  OG1 THR A   1      49.464  16.928   8.871  0.00  0.00    -0.383 OA
ATOM     17  HG1 THR A   1      49.314  16.685   9.819  0.00  0.00    +0.210 HD
ENDBRANCH  14  16
ENDBRANCH  11  14
ENDBRANCH   7  11
ENDBRANCH   6   9
BRANCH   6  18
ATOM     18  CB  LYS A   2      44.568  17.227  12.427  0.00  0.00    +0.029 C 
BRANCH  18  19
ATOM     19  CG  LYS A   2      43.377  17.235  11.445  0.00  0.00    +0.000 C 
BRANCH  19  20
ATOM     20  CD  LYS A   2      42.175  17.970  12.023  0.00  0.00    -0.024 C 
BRANCH  20  21
ATOM     21  CE  LYS A   2      40.930  17.812  11.167  0.00  0.00    -0.086 C 
BRANCH  21  22
ATOM     22  NZ  LYS A   2      40.819  18.602   9.879  0.00  0.00    +0.380 N 
ATOM     23  HZ1 LYS A   2      40.862  19.619  10.093  0.00  0.00    -0.089 HD
ATOM     24  HZ2 LYS A   2      39.914  18.382   9.416  0.00  0.00    -0.089 HD
ATOM     25  HZ3 LYS A   2      41.605  18.346   9.248  0.00  0.00    -0.089 HD
ENDBRANCH  21  22
ENDBRANCH  20  21
ENDBRANCH  19  20
ENDBRANCH  18  19
ENDBRANCH   6  18
ENDBRANCH   2   6
ENDBRANCH   1   3
BRANCH   1  26
ATOM     26  C   TYR A   3      44.074  12.265  13.564  0.00  0.00    +0.241 C 
ATOM     27  O   TYR A   3      43.860  12.875  14.610  0.00  0.00    -0.273 OA
ATOM     28  N   TYR A   4      43.568  11.060  13.275  0.00  0.00    -0.297 N 
ATOM     29  H   TYR A   4      43.852  10.607  12.383  0.00  0.00    +0.150 HD
BRANCH  28  30
ATOM     30  CA  TYR A   4      42.636  10.347  14.149  0.00  0.00    +0.153 C 
BRANCH  30  31
ATOM     31  C   TYR A   4      43.048   8.873  14.168  0.00  0.00    +0.241 C 
ATOM     32  N   SER A   5      43.382   8.341  15.339  0.00  0.00    -0.295 N 
ATOM     33  H   SER A   5      43.371   8.938  16.191  0.00  0.00    +0.150 HD
ATOM     34  O   TYR A   4      43.045   8.231  13.126  0.00  0.00    -0.273 OA
BRANCH  32  35
ATOM     35  CA  SER A   5      43.767   6.926  15.456  0.00  0.00    +0.178 C 
BRANCH  35  36
ATOM     36  C   SER A   5      42.602   6.053  15.064  0.00  0.00    +0.243 C 
ATOM     37  O   SER A   5      41.459   6.297  15.472  0.00  0.00    -0.273 OA
ATOM     38  N   THR A   6      42.891   5.037  14.259  0.00  0.00    -0.296 N 
ATOM     39  H   THR A   6      43.888   4.808  14.071  0.00  0.00    +0.150 HD
BRANCH  38  40
ATOM     40  CA  THR A   6      41.843   4.232  13.630  0.00  0.00    +0.164 C 
BRANCH  40  41
ATOM     41  C   THR A   6      42.295   2.780  13.573  0.00  0.00    +0.229 C 
ATOM     42  O   THR A   6      43.293   2.463  12.933  0.00  0.00    -0.286 OA
ENDBRANCH  40  41
BRANCH  40  43
ATOM     43  CB  THR A   6      41.549   4.735  12.195  0.00  0.00    +0.136 C 
ATOM     44  CG2 THR A   6      40.472   3.860  11.511  0.00  0.00    +0.034 C 
BRANCH  43  45
ATOM     45  OG1 THR A   6      41.097   6.094  12.245  0.00  0.00    -0.382 OA
ATOM     46  HG1 THR A   6      41.799   6.659  12.655  0.00  0.00    +0.210 HD
ENDBRANCH  43  45
ENDBRANCH  40  43
ENDBRANCH  38  40
ENDBRANCH  35  36
BRANCH  35  47
ATOM     47  CB  SER A   5      44.226   6.609  16.880  0.00  0.00    +0.166 C 
BRANCH  47  48
ATOM     48  OG  SER A   5      45.488   7.210  17.115  0.00  0.00    -0.380 OA
ATOM     49  H   SER A   5      45.411   8.191  17.003  0.00  0.00    +0.211 HD
ENDBRANCH  47  48
ENDBRANCH  35  47
ENDBRANCH  32  35
ENDBRANCH  30  31
BRANCH  30  50
ATOM     50  CB  TYR A   4      41.222  10.417  13.564  0.00  0.00    +0.055 C 
BRANCH  50  51
ATOM     51  CG  TYR A   4      40.705  11.803  13.308  0.00  0.00    -0.020 A 
ATOM     52  CD2 TYR A   4      40.058  12.519  14.313  0.00  0.00    -0.001 A 
ATOM     53  CE2 TYR A   4      39.575  13.806  14.087  0.00  0.00    +0.036 A 
ATOM     54  CZ  TYR A   4      39.743  14.387  12.835  0.00  0.00    +0.134 A 
ATOM     55  CE1 TYR A   4      40.394  13.697  11.811  0.00  0.00    +0.036 A 
ATOM     56  CD1 TYR A   4      40.868  12.403  12.055  0.00  0.00    -0.001 A 
BRANCH  54  57
ATOM     57  OH  TYR A   4      39.268  15.660  12.606  0.00  0.00    -0.506 OA
ATOM     58  HH  TYR A   4      39.467  15.922  11.672  0.00  0.00    +0.292 HD
ENDBRANCH  54  57
ENDBRANCH  50  51
ENDBRANCH  30  50
ENDBRANCH  28  30
ENDBRANCH   1  26
BRANCH   1  59
ATOM     59  CB  TYR A   3      46.284  11.975  12.478  0.00  0.00    +0.055 C 
BRANCH  59  60
ATOM     60  CG  TYR A   3      47.144  12.097  13.727  0.00  0.00    -0.020 A 
ATOM     61  CD2 TYR A   3      46.833  11.394  14.901  0.00  0.00    -0.001 A 
ATOM     62  CE2 TYR A   3      47.620  11.513  16.037  0.00  0.00    +0.036 A 
ATOM     63  CZ  TYR A   3      48.747  12.331  16.008  0.00  0.00    +0.134 A 
ATOM     64  CE1 TYR A   3      49.077  13.034  14.857  0.00  0.00    +0.036 A 
ATOM     65  CD1 TYR A   3      48.269  12.916  13.729  0.00  0.00    -0.001 A 
BRANCH  63  66
ATOM     66  OH  TYR A   3      49.554  12.457  17.122  0.00  0.00    -0.506 OA
ATOM     67  HH  TYR A   3      49.191  11.900  17.856  0.00  0.00    +0.292 HD
ENDBRANCH  63  66
ENDBRANCH  59  60
ENDBRANCH   1  59
TORSDOF 29
REMARK  Name = ../refined-set-2016/2p3i/2p3i_pocket.pdb
REMARK  99 active torsions:
REMARK  status: ('A' for Active; 'I' for Inactive)
REMARK    1  A    between atoms: _1  and  _3
REMARK    2  A    between atoms: _3  and  _4
REMARK    3  A    between atoms: _3  and  _6
REMARK    4  A    between atoms: _6  and  _7
REMARK    5  A    between atoms: _10  and  _12
REMARK    6  A    between atoms: _12  and  _13
REMARK    7  A    between atoms: _12  and  _15
REMARK    8  A    between atoms: _15  and  _16
REMARK    9  A    between atoms: _16  and  _17
REMARK   10  A    between atoms: _17  and  _18
REMARK   11  A    between atoms: _27  and  _29
REMARK   12  A    between atoms: _29  and  _30
REMARK   13  A    between atoms: _29  and  _32
REMARK   14  A    between atoms: _32  and  _33
REMARK   15  A    between atoms: _43  and  _45
REMARK   16  A    between atoms: _45  and  _46
REMARK   17  A    between atoms: _45  and  _48
REMARK   18  A    between atoms: _48  and  _49
REMARK   19  A    between atoms: _52  and  _54
REMARK   20  A    between atoms: _54  and  _55
REMARK   21  A    between atoms: _54  and  _57
REMARK   22  A    between atoms: _60  and  _62
REMARK   23  A    between atoms: _62  and  _63
REMARK   24  A    between atoms: _62  and  _65
REMARK   25  A    between atoms: _65  and  _66
REMARK   26  A    between atoms: _66  and  _67
REMARK   27  A    between atoms: _67  and  _68
REMARK   28  A    between atoms: _68  and  _69
REMARK   29  A    between atoms: _73  and  _75
REMARK   30  A    between atoms: _75  and  _76
REMARK   31  A    between atoms: _75  and  _78
REMARK   32  A    between atoms: _78  and  _79
REMARK   33  A    between atoms: _82  and  _84
REMARK   34  A    between atoms: _84  and  _85
REMARK   35  A    between atoms: _84  and  _87
REMARK   36  A    between atoms: _87  and  _88
REMARK   37  A    between atoms: _90  and  _92
REMARK   38  A    between atoms: _92  and  _93
REMARK   39  A    between atoms: _92  and  _95
REMARK   40  A    between atoms: _95  and  _96
REMARK   41  A    between atoms: _96  and  _97
REMARK   42  A    between atoms: _102  and  _104
REMARK   43  A    between atoms: _104  and  _105
REMARK   44  A    between atoms: _104  and  _107
REMARK   45  A    between atoms: _107  and  _108
REMARK   46  A    between atoms: _113  and  _114
REMARK   47  A    between atoms: _116  and  _118
REMARK   48  A    between atoms: _118  and  _119
REMARK   49  A    between atoms: _122  and  _123
REMARK   50  A    between atoms: _128  and  _130
REMARK   51  A    between atoms: _130  and  _131
REMARK   52  A    between atoms: _133  and  _135
REMARK   53  A    between atoms: _135  and  _136
REMARK   54  A    between atoms: _135  and  _138
REMARK   55  A    between atoms: _138  and  _139
REMARK   56  A    between atoms: _139  and  _140
REMARK   57  A    between atoms: _140  and  _141
REMARK   58  A    between atoms: _141  and  _142
REMARK   59  A    between atoms: _146  and  _148
REMARK   60  A    between atoms: _148  and  _149
REMARK   61  A    between atoms: _148  and  _151
REMARK   62  A    between atoms: _151  and  _152
REMARK   63  A    between atoms: _155  and  _157
REMARK   64  A    between atoms: _157  and  _158
REMARK   65  A    between atoms: _157  and  _160
REMARK   66  A    between atoms: _160  and  _161
REMARK   67  A    between atoms: _164  and  _166
REMARK   68  A    between atoms: _166  and  _167
REMARK   69  A    between atoms: _166  and  _169
REMARK   70  A    between atoms: _169  and  _170
REMARK   71  A    between atoms: _175  and  _177
REMARK   72  A    between atoms: _177  and  _178
REMARK   73  A    between atoms: _177  and  _180
REMARK   74  A    between atoms: _180  and  _181
REMARK   75  A    between atoms: _184  and  _186
REMARK   76  A    between atoms: _186  and  _187
REMARK   77  A    between atoms: _186  and  _189
REMARK   78  A    between atoms: _189  and  _190
REMARK   79  A    between atoms: _190  and  _191
REMARK   80  A    between atoms: _191  and  _192
REMARK   81  A    between atoms: _192  and  _193
REMARK   82  A    between atoms: _197  and  _199
REMARK   83  A    between atoms: _199  and  _200
REMARK   84  A    between atoms: _199  and  _202
REMARK   85  A    between atoms: _202  and  _203
REMARK   86  A    between atoms: _208  and  _209
REMARK   87  A    between atoms: _211  and  _213
REMARK   88  A    between atoms: _213  and  _214
REMARK   89  A    between atoms: _213  and  _216
REMARK   90  A    between atoms: _216  and  _217
REMARK   91  A    between atoms: _222  and  _223
REMARK   92  A    between atoms: _225  and  _227
REMARK   93  A    between atoms: _227  and  _228
REMARK   94  A    between atoms: _227  and  _230
REMARK   95  A    between atoms: _230  and  _231
REMARK   96  A    between atoms: _233  and  _235
REMARK   97  A    between atoms: _235  and  _236
REMARK   98  A    between atoms: _235  and  _238
REMARK   99  A    between atoms: _238  and  _239
REMARK                            x       y       z     vdW  Elec       q    Type
REMARK                         _______ _______ _______ _____ _____    ______ ____
ROOT
ATOM      1  O   HOH     1      39.119   5.133  17.481  0.00  0.00    +0.000 OA
ENDROOT
TORSDOF 0
REMARK  Name = ../refined-set-2016/2p3i/2p3i_pocket.pdb
REMARK  99 active torsions:
REMARK  status: ('A' for Active; 'I' for Inactive)
REMARK    1  A    between atoms: _1  and  _3
REMARK    2  A    between atoms: _3  and  _4
REMARK    3  A    between atoms: _3  and  _6
REMARK    4  A    between atoms: _6  and  _7
REMARK    5  A    between atoms: _10  and  _12
REMARK    6  A    between atoms: _12  and  _13
REMARK    7  A    between atoms: _12  and  _15
REMARK    8  A    between atoms: _15  and  _16
REMARK    9  A    between atoms: _16  and  _17
REMARK   10  A    between atoms: _17  and  _18
REMARK   11  A    between atoms: _27  and  _29
REMARK   12  A    between atoms: _29  and  _30
REMARK   13  A    between atoms: _29  and  _32
REMARK   14  A    between atoms: _32  and  _33
REMARK   15  A    between atoms: _43  and  _45
REMARK   16  A    between atoms: _45  and  _46
REMARK   17  A    between atoms: _45  and  _48
REMARK   18  A    between atoms: _48  and  _49
REMARK   19  A    between atoms: _52  and  _54
REMARK   20  A    between atoms: _54  and  _55
REMARK   21  A    between atoms: _54  and  _57
REMARK   22  A    between atoms: _60  and  _62
REMARK   23  A    between atoms: _62  and  _63
REMARK   24  A    between atoms: _62  and  _65
REMARK   25  A    between atoms: _65  and  _66
REMARK   26  A    between atoms: _66  and  _67
REMARK   27  A    between atoms: _67  and  _68
REMARK   28  A    between atoms: _68  and  _69
REMARK   29  A    between atoms: _73  and  _75
REMARK   30  A    between atoms: _75  and  _76
REMARK   31  A    between atoms: _75  and  _78
REMARK   32  A    between atoms: _78  and  _79
REMARK   33  A    between atoms: _82  and  _84
REMARK   34  A    between atoms: _84  and  _85
REMARK   35  A    between atoms: _84  and  _87
REMARK   36  A    between atoms: _87  and  _88
REMARK   37  A    between atoms: _90  and  _92
REMARK   38  A    between atoms: _92  and  _93
REMARK   39  A    between atoms: _92  and  _95
REMARK   40  A    between atoms: _95  and  _96
REMARK   41  A    between atoms: _96  and  _97
REMARK   42  A    between atoms: _102  and  _104
REMARK   43  A    between atoms: _104  and  _105
REMARK   44  A    between atoms: _104  and  _107
REMARK   45  A    between atoms: _107  and  _108
REMARK   46  A    between atoms: _113  and  _114
REMARK   47  A    between atoms: _116  and  _118
REMARK   48  A    between atoms: _118  and  _119
REMARK   49  A    between atoms: _122  and  _123
REMARK   50  A    between atoms: _128  and  _130
REMARK   51  A    between atoms: _130  and  _131
REMARK   52  A    between atoms: _133  and  _135
REMARK   53  A    between atoms: _135  and  _136
REMARK   54  A    between atoms: _135  and  _138
REMARK   55  A    between atoms: _138  and  _139
REMARK   56  A    between atoms: _139  and  _140
REMARK   57  A    between atoms: _140  and  _141
REMARK   58  A    between atoms: _141  and  _142
REMARK   59  A    between atoms: _146  and  _148
REMARK   60  A    between atoms: _148  and  _149
REMARK   61  A    between atoms: _148  and  _151
REMARK   62  A    between atoms: _151  and  _152
REMARK   63  A    between atoms: _155  and  _157
REMARK   64  A    between atoms: _157  and  _158
REMARK   65  A    between atoms: _157  and  _160
REMARK   66  A    between atoms: _160  and  _161
REMARK   67  A    between atoms: _164  and  _166
REMARK   68  A    between atoms: _166  and  _167
REMARK   69  A    between atoms: _166  and  _169
REMARK   70  A    between atoms: _169  and  _170
REMARK   71  A    between atoms: _175  and  _177
REMARK   72  A    between atoms: _177  and  _178
REMARK   73  A    between atoms: _177  and  _180
REMARK   74  A    between atoms: _180  and  _181
REMARK   75  A    between atoms: _184  and  _186
REMARK   76  A    between atoms: _186  and  _187
REMARK   77  A    between atoms: _186  and  _189
REMARK   78  A    between atoms: _189  and  _190
REMARK   79  A    between atoms: _190  and  _191
REMARK   80  A    between atoms: _191  and  _192
REMARK   81  A    between atoms: _192  and  _193
REMARK   82  A    between atoms: _197  and  _199
REMARK   83  A    between atoms: _199  and  _200
REMARK   84  A    between atoms: _199  and  _202
REMARK   85  A    between atoms: _202  and  _203
REMARK   86  A    between atoms: _208  and  _209
REMARK   87  A    between atoms: _211  and  _213
REMARK   88  A    between atoms: _213  and  _214
REMARK   89  A    between atoms: _213  and  _216
REMARK   90  A    between atoms: _216  and  _217
REMARK   91  A    between atoms: _222  and  _223
REMARK   92  A    between atoms: _225  and  _227
REMARK   93  A    between atoms: _227  and  _228
REMARK   94  A    between atoms: _227  and  _230
REMARK   95  A    between atoms: _230  and  _231
REMARK   96  A    between atoms: _233  and  _235
REMARK   97  A    between atoms: _235  and  _236
REMARK   98  A    between atoms: _235  and  _238
REMARK   99  A    between atoms: _238  and  _239
REMARK                            x       y       z     vdW  Elec       q    Type
REMARK                         _______ _______ _______ _____ _____    ______ ____
ROOT
ATOM      1  O   HOH     1      42.130  23.829  12.677  0.00  0.00    +0.000 OA
ENDROOT
TORSDOF 0
REMARK  Name = ../refined-set-2016/2p3i/2p3i_pocket.pdb
REMARK  99 active torsions:
REMARK  status: ('A' for Active; 'I' for Inactive)
REMARK    1  A    between atoms: _1  and  _3
REMARK    2  A    between atoms: _3  and  _4
REMARK    3  A    between atoms: _3  and  _6
REMARK    4  A    between atoms: _6  and  _7
REMARK    5  A    between atoms: _10  and  _12
REMARK    6  A    between atoms: _12  and  _13
REMARK    7  A    between atoms: _12  and  _15
REMARK    8  A    between atoms: _15  and  _16
REMARK    9  A    between atoms: _16  and  _17
REMARK   10  A    between atoms: _17  and  _18
REMARK   11  A    between atoms: _27  and  _29
REMARK   12  A    between atoms: _29  and  _30
REMARK   13  A    between atoms: _29  and  _32
REMARK   14  A    between atoms: _32  and  _33
REMARK   15  A    between atoms: _43  and  _45
REMARK   16  A    between atoms: _45  and  _46
REMARK   17  A    between atoms: _45  and  _48
REMARK   18  A    between atoms: _48  and  _49
REMARK   19  A    between atoms: _52  and  _54
REMARK   20  A    between atoms: _54  and  _55
REMARK   21  A    between atoms: _54  and  _57
REMARK   22  A    between atoms: _60  and  _62
REMARK   23  A    between atoms: _62  and  _63
REMARK   24  A    between atoms: _62  and  _65
REMARK   25  A    between atoms: _65  and  _66
REMARK   26  A    between atoms: _66  and  _67
REMARK   27  A    between atoms: _67  and  _68
REMARK   28  A    between atoms: _68  and  _69
REMARK   29  A    between atoms: _73  and  _75
REMARK   30  A    between atoms: _75  and  _76
REMARK   31  A    between atoms: _75  and  _78
REMARK   32  A    between atoms: _78  and  _79
REMARK   33  A    between atoms: _82  and  _84
REMARK   34  A    between atoms: _84  and  _85
REMARK   35  A    between atoms: _84  and  _87
REMARK   36  A    between atoms: _87  and  _88
REMARK   37  A    between atoms: _90  and  _92
REMARK   38  A    between atoms: _92  and  _93
REMARK   39  A    between atoms: _92  and  _95
REMARK   40  A    between atoms: _95  and  _96
REMARK   41  A    between atoms: _96  and  _97
REMARK   42  A    between atoms: _102  and  _104
REMARK   43  A    between atoms: _104  and  _105
REMARK   44  A    between atoms: _104  and  _107
REMARK   45  A    between atoms: _107  and  _108
REMARK   46  A    between atoms: _113  and  _114
REMARK   47  A    between atoms: _116  and  _118
REMARK   48  A    between atoms: _118  and  _119
REMARK   49  A    between atoms: _122  and  _123
REMARK   50  A    between atoms: _128  and  _130
REMARK   51  A    between atoms: _130  and  _131
REMARK   52  A    between atoms: _133  and  _135
REMARK   53  A    between atoms: _135  and  _136
REMARK   54  A    between atoms: _135  and  _138
REMARK   55  A    between atoms: _138  and  _139
REMARK   56  A    between atoms: _139  and  _140
REMARK   57  A    between atoms: _140  and  _141
REMARK   58  A    between atoms: _141  and  _142
REMARK   59  A    between atoms: _146  and  _148
REMARK   60  A    between atoms: _148  and  _149
REMARK   61  A    between atoms: _148  and  _151
REMARK   62  A    between atoms: _151  and  _152
REMARK   63  A    between atoms: _155  and  _157
REMARK   64  A    between atoms: _157  and  _158
REMARK   65  A    between atoms: _157  and  _160
REMARK   66  A    between atoms: _160  and  _161
REMARK   67  A    between atoms: _164  and  _166
REMARK   68  A    between atoms: _166  and  _167
REMARK   69  A    between atoms: _166  and  _169
REMARK   70  A    between atoms: _169  and  _170
REMARK   71  A    between atoms: _175  and  _177
REMARK   72  A    between atoms: _177  and  _178
REMARK   73  A    between atoms: _177  and  _180
REMARK   74  A    between atoms: _180  and  _181
REMARK   75  A    between atoms: _184  and  _186
REMARK   76  A    between atoms: _186  and  _187
REMARK   77  A    between atoms: _186  and  _189
REMARK   78  A    between atoms: _189  and  _190
REMARK   79  A    between atoms: _190  and  _191
REMARK   80  A    between atoms: _191  and  _192
REMARK   81  A    between atoms: _192  and  _193
REMARK   82  A    between atoms: _197  and  _199
REMARK   83  A    between atoms: _199  and  _200
REMARK   84  A    between atoms: _199  and  _202
REMARK   85  A    between atoms: _202  and  _203
REMARK   86  A    between atoms: _208  and  _209
REMARK   87  A    between atoms: _211  and  _213
REMARK   88  A    between atoms: _213  and  _214
REMARK   89  A    between atoms: _213  and  _216
REMARK   90  A    between atoms: _216  and  _217
REMARK   91  A    between atoms: _222  and  _223
REMARK   92  A    between atoms: _225  and  _227
REMARK   93  A    between atoms: _227  and  _228
REMARK   94  A    between atoms: _227  and  _230
REMARK   95  A    between atoms: _230  and  _231
REMARK   96  A    between atoms: _233  and  _235
REMARK   97  A    between atoms: _235  and  _236
REMARK   98  A    between atoms: _235  and  _238
REMARK   99  A    between atoms: _238  and  _239
REMARK                            x       y       z     vdW  Elec       q    Type
REMARK                         _______ _______ _______ _____ _____    ______ ____
ROOT
ATOM      1  O   HOH     1      46.260  15.618  15.264  0.00  0.00    +0.000 OA
ENDROOT
TORSDOF 0
REMARK  Name = ../refined-set-2016/2p3i/2p3i_pocket.pdb
REMARK  99 active torsions:
REMARK  status: ('A' for Active; 'I' for Inactive)
REMARK    1  A    between atoms: _1  and  _3
REMARK    2  A    between atoms: _3  and  _4
REMARK    3  A    between atoms: _3  and  _6
REMARK    4  A    between atoms: _6  and  _7
REMARK    5  A    between atoms: _10  and  _12
REMARK    6  A    between atoms: _12  and  _13
REMARK    7  A    between atoms: _12  and  _15
REMARK    8  A    between atoms: _15  and  _16
REMARK    9  A    between atoms: _16  and  _17
REMARK   10  A    between atoms: _17  and  _18
REMARK   11  A    between atoms: _27  and  _29
REMARK   12  A    between atoms: _29  and  _30
REMARK   13  A    between atoms: _29  and  _32
REMARK   14  A    between atoms: _32  and  _33
REMARK   15  A    between atoms: _43  and  _45
REMARK   16  A    between atoms: _45  and  _46
REMARK   17  A    between atoms: _45  and  _48
REMARK   18  A    between atoms: _48  and  _49
REMARK   19  A    between atoms: _52  and  _54
REMARK   20  A    between atoms: _54  and  _55
REMARK   21  A    between atoms: _54  and  _57
REMARK   22  A    between atoms: _60  and  _62
REMARK   23  A    between atoms: _62  and  _63
REMARK   24  A    between atoms: _62  and  _65
REMARK   25  A    between atoms: _65  and  _66
REMARK   26  A    between atoms: _66  and  _67
REMARK   27  A    between atoms: _67  and  _68
REMARK   28  A    between atoms: _68  and  _69
REMARK   29  A    between atoms: _73  and  _75
REMARK   30  A    between atoms: _75  and  _76
REMARK   31  A    between atoms: _75  and  _78
REMARK   32  A    between atoms: _78  and  _79
REMARK   33  A    between atoms: _82  and  _84
REMARK   34  A    between atoms: _84  and  _85
REMARK   35  A    between atoms: _84  and  _87
REMARK   36  A    between atoms: _87  and  _88
REMARK   37  A    between atoms: _90  and  _92
REMARK   38  A    between atoms: _92  and  _93
REMARK   39  A    between atoms: _92  and  _95
REMARK   40  A    between atoms: _95  and  _96
REMARK   41  A    between atoms: _96  and  _97
REMARK   42  A    between atoms: _102  and  _104
REMARK   43  A    between atoms: _104  and  _105
REMARK   44  A    between atoms: _104  and  _107
REMARK   45  A    between atoms: _107  and  _108
REMARK   46  A    between atoms: _113  and  _114
REMARK   47  A    between atoms: _116  and  _118
REMARK   48  A    between atoms: _118  and  _119
REMARK   49  A    between atoms: _122  and  _123
REMARK   50  A    between atoms: _128  and  _130
REMARK   51  A    between atoms: _130  and  _131
REMARK   52  A    between atoms: _133  and  _135
REMARK   53  A    between atoms: _135  and  _136
REMARK   54  A    between atoms: _135  and  _138
REMARK   55  A    between atoms: _138  and  _139
REMARK   56  A    between atoms: _139  and  _140
REMARK   57  A    between atoms: _140  and  _141
REMARK   58  A    between atoms: _141  and  _142
REMARK   59  A    between atoms: _146  and  _148
REMARK   60  A    between atoms: _148  and  _149
REMARK   61  A    between atoms: _148  and  _151
REMARK   62  A    between atoms: _151  and  _152
REMARK   63  A    between atoms: _155  and  _157
REMARK   64  A    between atoms: _157  and  _158
REMARK   65  A    between atoms: _157  and  _160
REMARK   66  A    between atoms: _160  and  _161
REMARK   67  A    between atoms: _164  and  _166
REMARK   68  A    between atoms: _166  and  _167
REMARK   69  A    between atoms: _166  and  _169
REMARK   70  A    between atoms: _169  and  _170
REMARK   71  A    between atoms: _175  and  _177
REMARK   72  A    between atoms: _177  and  _178
REMARK   73  A    between atoms: _177  and  _180
REMARK   74  A    between atoms: _180  and  _181
REMARK   75  A    between atoms: _184  and  _186
REMARK   76  A    between atoms: _186  and  _187
REMARK   77  A    between atoms: _186  and  _189
REMARK   78  A    between atoms: _189  and  _190
REMARK   79  A    between atoms: _190  and  _191
REMARK   80  A    between atoms: _191  and  _192
REMARK   81  A    between atoms: _192  and  _193
REMARK   82  A    between atoms: _197  and  _199
REMARK   83  A    between atoms: _199  and  _200
REMARK   84  A    between atoms: _199  and  _202
REMARK   85  A    between atoms: _202  and  _203
REMARK   86  A    between atoms: _208  and  _209
REMARK   87  A    between atoms: _211  and  _213
REMARK   88  A    between atoms: _213  and  _214
REMARK   89  A    between atoms: _213  and  _216
REMARK   90  A    between atoms: _216  and  _217
REMARK   91  A    between atoms: _222  and  _223
REMARK   92  A    between atoms: _225  and  _227
REMARK   93  A    between atoms: _227  and  _228
REMARK   94  A    between atoms: _227  and  _230
REMARK   95  A    between atoms: _230  and  _231
REMARK   96  A    between atoms: _233  and  _235
REMARK   97  A    between atoms: _235  and  _236
REMARK   98  A    between atoms: _235  and  _238
REMARK   99  A    between atoms: _238  and  _239
REMARK                            x       y       z     vdW  Elec       q    Type
REMARK                         _______ _______ _______ _____ _____    ______ ____
ROOT
ATOM      1  O   HOH     1      38.381  19.549   9.183  0.00  0.00    +0.000 OA
ENDROOT
TORSDOF 0
REMARK  Name = ../refined-set-2016/2p3i/2p3i_pocket.pdb
REMARK  99 active torsions:
REMARK  status: ('A' for Active; 'I' for Inactive)
REMARK    1  A    between atoms: _1  and  _3
REMARK    2  A    between atoms: _3  and  _4
REMARK    3  A    between atoms: _3  and  _6
REMARK    4  A    between atoms: _6  and  _7
REMARK    5  A    between atoms: _10  and  _12
REMARK    6  A    between atoms: _12  and  _13
REMARK    7  A    between atoms: _12  and  _15
REMARK    8  A    between atoms: _15  and  _16
REMARK    9  A    between atoms: _16  and  _17
REMARK   10  A    between atoms: _17  and  _18
REMARK   11  A    between atoms: _27  and  _29
REMARK   12  A    between atoms: _29  and  _30
REMARK   13  A    between atoms: _29  and  _32
REMARK   14  A    between atoms: _32  and  _33
REMARK   15  A    between atoms: _43  and  _45
REMARK   16  A    between atoms: _45  and  _46
REMARK   17  A    between atoms: _45  and  _48
REMARK   18  A    between atoms: _48  and  _49
REMARK   19  A    between atoms: _52  and  _54
REMARK   20  A    between atoms: _54  and  _55
REMARK   21  A    between atoms: _54  and  _57
REMARK   22  A    between atoms: _60  and  _62
REMARK   23  A    between atoms: _62  and  _63
REMARK   24  A    between atoms: _62  and  _65
REMARK   25  A    between atoms: _65  and  _66
REMARK   26  A    between atoms: _66  and  _67
REMARK   27  A    between atoms: _67  and  _68
REMARK   28  A    between atoms: _68  and  _69
REMARK   29  A    between atoms: _73  and  _75
REMARK   30  A    between atoms: _75  and  _76
REMARK   31  A    between atoms: _75  and  _78
REMARK   32  A    between atoms: _78  and  _79
REMARK   33  A    between atoms: _82  and  _84
REMARK   34  A    between atoms: _84  and  _85
REMARK   35  A    between atoms: _84  and  _87
REMARK   36  A    between atoms: _87  and  _88
REMARK   37  A    between atoms: _90  and  _92
REMARK   38  A    between atoms: _92  and  _93
REMARK   39  A    between atoms: _92  and  _95
REMARK   40  A    between atoms: _95  and  _96
REMARK   41  A    between atoms: _96  and  _97
REMARK   42  A    between atoms: _102  and  _104
REMARK   43  A    between atoms: _104  and  _105
REMARK   44  A    between atoms: _104  and  _107
REMARK   45  A    between atoms: _107  and  _108
REMARK   46  A    between atoms: _113  and  _114
REMARK   47  A    between atoms: _116  and  _118
REMARK   48  A    between atoms: _118  and  _119
REMARK   49  A    between atoms: _122  and  _123
REMARK   50  A    between atoms: _128  and  _130
REMARK   51  A    between atoms: _130  and  _131
REMARK   52  A    between atoms: _133  and  _135
REMARK   53  A    between atoms: _135  and  _136
REMARK   54  A    between atoms: _135  and  _138
REMARK   55  A    between atoms: _138  and  _139
REMARK   56  A    between atoms: _139  and  _140
REMARK   57  A    between atoms: _140  and  _141
REMARK   58  A    between atoms: _141  and  _142
REMARK   59  A    between atoms: _146  and  _148
REMARK   60  A    between atoms: _148  and  _149
REMARK   61  A    between atoms: _148  and  _151
REMARK   62  A    between atoms: _151  and  _152
REMARK   63  A    between atoms: _155  and  _157
REMARK   64  A    between atoms: _157  and  _158
REMARK   65  A    between atoms: _157  and  _160
REMARK   66  A    between atoms: _160  and  _161
REMARK   67  A    between atoms: _164  and  _166
REMARK   68  A    between atoms: _166  and  _167
REMARK   69  A    between atoms: _166  and  _169
REMARK   70  A    between atoms: _169  and  _170
REMARK   71  A    between atoms: _175  and  _177
REMARK   72  A    between atoms: _177  and  _178
REMARK   73  A    between atoms: _177  and  _180
REMARK   74  A    between atoms: _180  and  _181
REMARK   75  A    between atoms: _184  and  _186
REMARK   76  A    between atoms: _186  and  _187
REMARK   77  A    between atoms: _186  and  _189
REMARK   78  A    between atoms: _189  and  _190
REMARK   79  A    between atoms: _190  and  _191
REMARK   80  A    between atoms: _191  and  _192
REMARK   81  A    between atoms: _192  and  _193
REMARK   82  A    between atoms: _197  and  _199
REMARK   83  A    between atoms: _199  and  _200
REMARK   84  A    between atoms: _199  and  _202
REMARK   85  A    between atoms: _202  and  _203
REMARK   86  A    between atoms: _208  and  _209
REMARK   87  A    between atoms: _211  and  _213
REMARK   88  A    between atoms: _213  and  _214
REMARK   89  A    between atoms: _213  and  _216
REMARK   90  A    between atoms: _216  and  _217
REMARK   91  A    between atoms: _222  and  _223
REMARK   92  A    between atoms: _225  and  _227
REMARK   93  A    between atoms: _227  and  _228
REMARK   94  A    between atoms: _227  and  _230
REMARK   95  A    between atoms: _230  and  _231
REMARK   96  A    between atoms: _233  and  _235
REMARK   97  A    between atoms: _235  and  _236
REMARK   98  A    between atoms: _235  and  _238
REMARK   99  A    between atoms: _238  and  _239
REMARK                            x       y       z     vdW  Elec       q    Type
REMARK                         _______ _______ _______ _____ _____    ______ ____
ROOT
ATOM      1  O   HOH     1      45.254  18.625  15.809  0.00  0.00    +0.000 OA
ENDROOT
TORSDOF 0
REMARK  Name = ../refined-set-2016/2p3i/2p3i_pocket.pdb
REMARK  99 active torsions:
REMARK  status: ('A' for Active; 'I' for Inactive)
REMARK    1  A    between atoms: _1  and  _3
REMARK    2  A    between atoms: _3  and  _4
REMARK    3  A    between atoms: _3  and  _6
REMARK    4  A    between atoms: _6  and  _7
REMARK    5  A    between atoms: _10  and  _12
REMARK    6  A    between atoms: _12  and  _13
REMARK    7  A    between atoms: _12  and  _15
REMARK    8  A    between atoms: _15  and  _16
REMARK    9  A    between atoms: _16  and  _17
REMARK   10  A    between atoms: _17  and  _18
REMARK   11  A    between atoms: _27  and  _29
REMARK   12  A    between atoms: _29  and  _30
REMARK   13  A    between atoms: _29  and  _32
REMARK   14  A    between atoms: _32  and  _33
REMARK   15  A    between atoms: _43  and  _45
REMARK   16  A    between atoms: _45  and  _46
REMARK   17  A    between atoms: _45  and  _48
REMARK   18  A    between atoms: _48  and  _49
REMARK   19  A    between atoms: _52  and  _54
REMARK   20  A    between atoms: _54  and  _55
REMARK   21  A    between atoms: _54  and  _57
REMARK   22  A    between atoms: _60  and  _62
REMARK   23  A    between atoms: _62  and  _63
REMARK   24  A    between atoms: _62  and  _65
REMARK   25  A    between atoms: _65  and  _66
REMARK   26  A    between atoms: _66  and  _67
REMARK   27  A    between atoms: _67  and  _68
REMARK   28  A    between atoms: _68  and  _69
REMARK   29  A    between atoms: _73  and  _75
REMARK   30  A    between atoms: _75  and  _76
REMARK   31  A    between atoms: _75  and  _78
REMARK   32  A    between atoms: _78  and  _79
REMARK   33  A    between atoms: _82  and  _84
REMARK   34  A    between atoms: _84  and  _85
REMARK   35  A    between atoms: _84  and  _87
REMARK   36  A    between atoms: _87  and  _88
REMARK   37  A    between atoms: _90  and  _92
REMARK   38  A    between atoms: _92  and  _93
REMARK   39  A    between atoms: _92  and  _95
REMARK   40  A    between atoms: _95  and  _96
REMARK   41  A    between atoms: _96  and  _97
REMARK   42  A    between atoms: _102  and  _104
REMARK   43  A    between atoms: _104  and  _105
REMARK   44  A    between atoms: _104  and  _107
REMARK   45  A    between atoms: _107  and  _108
REMARK   46  A    between atoms: _113  and  _114
REMARK   47  A    between atoms: _116  and  _118
REMARK   48  A    between atoms: _118  and  _119
REMARK   49  A    between atoms: _122  and  _123
REMARK   50  A    between atoms: _128  and  _130
REMARK   51  A    between atoms: _130  and  _131
REMARK   52  A    between atoms: _133  and  _135
REMARK   53  A    between atoms: _135  and  _136
REMARK   54  A    between atoms: _135  and  _138
REMARK   55  A    between atoms: _138  and  _139
REMARK   56  A    between atoms: _139  and  _140
REMARK   57  A    between atoms: _140  and  _141
REMARK   58  A    between atoms: _141  and  _142
REMARK   59  A    between atoms: _146  and  _148
REMARK   60  A    between atoms: _148  and  _149
REMARK   61  A    between atoms: _148  and  _151
REMARK   62  A    between atoms: _151  and  _152
REMARK   63  A    between atoms: _155  and  _157
REMARK   64  A    between atoms: _157  and  _158
REMARK   65  A    between atoms: _157  and  _160
REMARK   66  A    between atoms: _160  and  _161
REMARK   67  A    between atoms: _164  and  _166
REMARK   68  A    between atoms: _166  and  _167
REMARK   69  A    between atoms: _166  and  _169
REMARK   70  A    between atoms: _169  and  _170
REMARK   71  A    between atoms: _175  and  _177
REMARK   72  A    between atoms: _177  and  _178
REMARK   73  A    between atoms: _177  and  _180
REMARK   74  A    between atoms: _180  and  _181
REMARK   75  A    between atoms: _184  and  _186
REMARK   76  A    between atoms: _186  and  _187
REMARK   77  A    between atoms: _186  and  _189
REMARK   78  A    between atoms: _189  and  _190
REMARK   79  A    between atoms: _190  and  _191
REMARK   80  A    between atoms: _191  and  _192
REMARK   81  A    between atoms: _192  and  _193
REMARK   82  A    between atoms: _197  and  _199
REMARK   83  A    between atoms: _199  and  _200
REMARK   84  A    between atoms: _199  and  _202
REMARK   85  A    between atoms: _202  and  _203
REMARK   86  A    between atoms: _208  and  _209
REMARK   87  A    between atoms: _211  and  _213
REMARK   88  A    between atoms: _213  and  _214
REMARK   89  A    between atoms: _213  and  _216
REMARK   90  A    between atoms: _216  and  _217
REMARK   91  A    between atoms: _222  and  _223
REMARK   92  A    between atoms: _225  and  _227
REMARK   93  A    between atoms: _227  and  _228
REMARK   94  A    between atoms: _227  and  _230
REMARK   95  A    between atoms: _230  and  _231
REMARK   96  A    between atoms: _233  and  _235
REMARK   97  A    between atoms: _235  and  _236
REMARK   98  A    between atoms: _235  and  _238
REMARK   99  A    between atoms: _238  and  _239
REMARK                            x       y       z     vdW  Elec       q    Type
REMARK                         _______ _______ _______ _____ _____    ______ ____
ROOT
ATOM      1  O   HOH     1      41.454  18.844  18.316  0.00  0.00    +0.000 OA
ENDROOT
TORSDOF 0
REMARK  Name = ../refined-set-2016/2p3i/2p3i_pocket.pdb
REMARK  99 active torsions:
REMARK  status: ('A' for Active; 'I' for Inactive)
REMARK    1  A    between atoms: _1  and  _3
REMARK    2  A    between atoms: _3  and  _4
REMARK    3  A    between atoms: _3  and  _6
REMARK    4  A    between atoms: _6  and  _7
REMARK    5  A    between atoms: _10  and  _12
REMARK    6  A    between atoms: _12  and  _13
REMARK    7  A    between atoms: _12  and  _15
REMARK    8  A    between atoms: _15  and  _16
REMARK    9  A    between atoms: _16  and  _17
REMARK   10  A    between atoms: _17  and  _18
REMARK   11  A    between atoms: _27  and  _29
REMARK   12  A    between atoms: _29  and  _30
REMARK   13  A    between atoms: _29  and  _32
REMARK   14  A    between atoms: _32  and  _33
REMARK   15  A    between atoms: _43  and  _45
REMARK   16  A    between atoms: _45  and  _46
REMARK   17  A    between atoms: _45  and  _48
REMARK   18  A    between atoms: _48  and  _49
REMARK   19  A    between atoms: _52  and  _54
REMARK   20  A    between atoms: _54  and  _55
REMARK   21  A    between atoms: _54  and  _57
REMARK   22  A    between atoms: _60  and  _62
REMARK   23  A    between atoms: _62  and  _63
REMARK   24  A    between atoms: _62  and  _65
REMARK   25  A    between atoms: _65  and  _66
REMARK   26  A    between atoms: _66  and  _67
REMARK   27  A    between atoms: _67  and  _68
REMARK   28  A    between atoms: _68  and  _69
REMARK   29  A    between atoms: _73  and  _75
REMARK   30  A    between atoms: _75  and  _76
REMARK   31  A    between atoms: _75  and  _78
REMARK   32  A    between atoms: _78  and  _79
REMARK   33  A    between atoms: _82  and  _84
REMARK   34  A    between atoms: _84  and  _85
REMARK   35  A    between atoms: _84  and  _87
REMARK   36  A    between atoms: _87  and  _88
REMARK   37  A    between atoms: _90  and  _92
REMARK   38  A    between atoms: _92  and  _93
REMARK   39  A    between atoms: _92  and  _95
REMARK   40  A    between atoms: _95  and  _96
REMARK   41  A    between atoms: _96  and  _97
REMARK   42  A    between atoms: _102  and  _104
REMARK   43  A    between atoms: _104  and  _105
REMARK   44  A    between atoms: _104  and  _107
REMARK   45  A    between atoms: _107  and  _108
REMARK   46  A    between atoms: _113  and  _114
REMARK   47  A    between atoms: _116  and  _118
REMARK   48  A    between atoms: _118  and  _119
REMARK   49  A    between atoms: _122  and  _123
REMARK   50  A    between atoms: _128  and  _130
REMARK   51  A    between atoms: _130  and  _131
REMARK   52  A    between atoms: _133  and  _135
REMARK   53  A    between atoms: _135  and  _136
REMARK   54  A    between atoms: _135  and  _138
REMARK   55  A    between atoms: _138  and  _139
REMARK   56  A    between atoms: _139  and  _140
REMARK   57  A    between atoms: _140  and  _141
REMARK   58  A    between atoms: _141  and  _142
REMARK   59  A    between atoms: _146  and  _148
REMARK   60  A    between atoms: _148  and  _149
REMARK   61  A    between atoms: _148  and  _151
REMARK   62  A    between atoms: _151  and  _152
REMARK   63  A    between atoms: _155  and  _157
REMARK   64  A    between atoms: _157  and  _158
REMARK   65  A    between atoms: _157  and  _160
REMARK   66  A    between atoms: _160  and  _161
REMARK   67  A    between atoms: _164  and  _166
REMARK   68  A    between atoms: _166  and  _167
REMARK   69  A    between atoms: _166  and  _169
REMARK   70  A    between atoms: _169  and  _170
REMARK   71  A    between atoms: _175  and  _177
REMARK   72  A    between atoms: _177  and  _178
REMARK   73  A    between atoms: _177  and  _180
REMARK   74  A    between atoms: _180  and  _181
REMARK   75  A    between atoms: _184  and  _186
REMARK   76  A    between atoms: _186  and  _187
REMARK   77  A    between atoms: _186  and  _189
REMARK   78  A    between atoms: _189  and  _190
REMARK   79  A    between atoms: _190  and  _191
REMARK   80  A    between atoms: _191  and  _192
REMARK   81  A    between atoms: _192  and  _193
REMARK   82  A    between atoms: _197  and  _199
REMARK   83  A    between atoms: _199  and  _200
REMARK   84  A    between atoms: _199  and  _202
REMARK   85  A    between atoms: _202  and  _203
REMARK   86  A    between atoms: _208  and  _209
REMARK   87  A    between atoms: _211  and  _213
REMARK   88  A    between atoms: _213  and  _214
REMARK   89  A    between atoms: _213  and  _216
REMARK   90  A    between atoms: _216  and  _217
REMARK   91  A    between atoms: _222  and  _223
REMARK   92  A    between atoms: _225  and  _227
REMARK   93  A    between atoms: _227  and  _228
REMARK   94  A    between atoms: _227  and  _230
REMARK   95  A    between atoms: _230  and  _231
REMARK   96  A    between atoms: _233  and  _235
REMARK   97  A    between atoms: _235  and  _236
REMARK   98  A    between atoms: _235  and  _238
REMARK   99  A    between atoms: _238  and  _239
REMARK                            x       y       z     vdW  Elec       q    Type
REMARK                         _______ _______ _______ _____ _____    ______ ____
ROOT
ATOM      1  O   HOH     1      35.532  11.649  19.305  0.00  0.00    +0.000 OA
ENDROOT
TORSDOF 0
REMARK  Name = ../refined-set-2016/2p3i/2p3i_pocket.pdb
REMARK  99 active torsions:
REMARK  status: ('A' for Active; 'I' for Inactive)
REMARK    1  A    between atoms: _1  and  _3
REMARK    2  A    between atoms: _3  and  _4
REMARK    3  A    between atoms: _3  and  _6
REMARK    4  A    between atoms: _6  and  _7
REMARK    5  A    between atoms: _10  and  _12
REMARK    6  A    between atoms: _12  and  _13
REMARK    7  A    between atoms: _12  and  _15
REMARK    8  A    between atoms: _15  and  _16
REMARK    9  A    between atoms: _16  and  _17
REMARK   10  A    between atoms: _17  and  _18
REMARK   11  A    between atoms: _27  and  _29
REMARK   12  A    between atoms: _29  and  _30
REMARK   13  A    between atoms: _29  and  _32
REMARK   14  A    between atoms: _32  and  _33
REMARK   15  A    between atoms: _43  and  _45
REMARK   16  A    between atoms: _45  and  _46
REMARK   17  A    between atoms: _45  and  _48
REMARK   18  A    between atoms: _48  and  _49
REMARK   19  A    between atoms: _52  and  _54
REMARK   20  A    between atoms: _54  and  _55
REMARK   21  A    between atoms: _54  and  _57
REMARK   22  A    between atoms: _60  and  _62
REMARK   23  A    between atoms: _62  and  _63
REMARK   24  A    between atoms: _62  and  _65
REMARK   25  A    between atoms: _65  and  _66
REMARK   26  A    between atoms: _66  and  _67
REMARK   27  A    between atoms: _67  and  _68
REMARK   28  A    between atoms: _68  and  _69
REMARK   29  A    between atoms: _73  and  _75
REMARK   30  A    between atoms: _75  and  _76
REMARK   31  A    between atoms: _75  and  _78
REMARK   32  A    between atoms: _78  and  _79
REMARK   33  A    between atoms: _82  and  _84
REMARK   34  A    between atoms: _84  and  _85
REMARK   35  A    between atoms: _84  and  _87
REMARK   36  A    between atoms: _87  and  _88
REMARK   37  A    between atoms: _90  and  _92
REMARK   38  A    between atoms: _92  and  _93
REMARK   39  A    between atoms: _92  and  _95
REMARK   40  A    between atoms: _95  and  _96
REMARK   41  A    between atoms: _96  and  _97
REMARK   42  A    between atoms: _102  and  _104
REMARK   43  A    between atoms: _104  and  _105
REMARK   44  A    between atoms: _104  and  _107
REMARK   45  A    between atoms: _107  and  _108
REMARK   46  A    between atoms: _113  and  _114
REMARK   47  A    between atoms: _116  and  _118
REMARK   48  A    between atoms: _118  and  _119
REMARK   49  A    between atoms: _122  and  _123
REMARK   50  A    between atoms: _128  and  _130
REMARK   51  A    between atoms: _130  and  _131
REMARK   52  A    between atoms: _133  and  _135
REMARK   53  A    between atoms: _135  and  _136
REMARK   54  A    between atoms: _135  and  _138
REMARK   55  A    between atoms: _138  and  _139
REMARK   56  A    between atoms: _139  and  _140
REMARK   57  A    between atoms: _140  and  _141
REMARK   58  A    between atoms: _141  and  _142
REMARK   59  A    between atoms: _146  and  _148
REMARK   60  A    between atoms: _148  and  _149
REMARK   61  A    between atoms: _148  and  _151
REMARK   62  A    between atoms: _151  and  _152
REMARK   63  A    between atoms: _155  and  _157
REMARK   64  A    between atoms: _157  and  _158
REMARK   65  A    between atoms: _157  and  _160
REMARK   66  A    between atoms: _160  and  _161
REMARK   67  A    between atoms: _164  and  _166
REMARK   68  A    between atoms: _166  and  _167
REMARK   69  A    between atoms: _166  and  _169
REMARK   70  A    between atoms: _169  and  _170
REMARK   71  A    between atoms: _175  and  _177
REMARK   72  A    between atoms: _177  and  _178
REMARK   73  A    between atoms: _177  and  _180
REMARK   74  A    between atoms: _180  and  _181
REMARK   75  A    between atoms: _184  and  _186
REMARK   76  A    between atoms: _186  and  _187
REMARK   77  A    between atoms: _186  and  _189
REMARK   78  A    between atoms: _189  and  _190
REMARK   79  A    between atoms: _190  and  _191
REMARK   80  A    between atoms: _191  and  _192
REMARK   81  A    between atoms: _192  and  _193
REMARK   82  A    between atoms: _197  and  _199
REMARK   83  A    between atoms: _199  and  _200
REMARK   84  A    between atoms: _199  and  _202
REMARK   85  A    between atoms: _202  and  _203
REMARK   86  A    between atoms: _208  and  _209
REMARK   87  A    between atoms: _211  and  _213
REMARK   88  A    between atoms: _213  and  _214
REMARK   89  A    between atoms: _213  and  _216
REMARK   90  A    between atoms: _216  and  _217
REMARK   91  A    between atoms: _222  and  _223
REMARK   92  A    between atoms: _225  and  _227
REMARK   93  A    between atoms: _227  and  _228
REMARK   94  A    between atoms: _227  and  _230
REMARK   95  A    between atoms: _230  and  _231
REMARK   96  A    between atoms: _233  and  _235
REMARK   97  A    between atoms: _235  and  _236
REMARK   98  A    between atoms: _235  and  _238
REMARK   99  A    between atoms: _238  and  _239
REMARK                            x       y       z     vdW  Elec       q    Type
REMARK                         _______ _______ _______ _____ _____    ______ ____
ROOT
ATOM      1  O   HOH     1      32.430  11.426  19.376  0.00  0.00    +0.000 OA
ENDROOT
TORSDOF 0
REMARK  Name = ../refined-set-2016/2p3i/2p3i_pocket.pdb
REMARK  99 active torsions:
REMARK  status: ('A' for Active; 'I' for Inactive)
REMARK    1  A    between atoms: _1  and  _3
REMARK    2  A    between atoms: _3  and  _4
REMARK    3  A    between atoms: _3  and  _6
REMARK    4  A    between atoms: _6  and  _7
REMARK    5  A    between atoms: _10  and  _12
REMARK    6  A    between atoms: _12  and  _13
REMARK    7  A    between atoms: _12  and  _15
REMARK    8  A    between atoms: _15  and  _16
REMARK    9  A    between atoms: _16  and  _17
REMARK   10  A    between atoms: _17  and  _18
REMARK   11  A    between atoms: _27  and  _29
REMARK   12  A    between atoms: _29  and  _30
REMARK   13  A    between atoms: _29  and  _32
REMARK   14  A    between atoms: _32  and  _33
REMARK   15  A    between atoms: _43  and  _45
REMARK   16  A    between atoms: _45  and  _46
REMARK   17  A    between atoms: _45  and  _48
REMARK   18  A    between atoms: _48  and  _49
REMARK   19  A    between atoms: _52  and  _54
REMARK   20  A    between atoms: _54  and  _55
REMARK   21  A    between atoms: _54  and  _57
REMARK   22  A    between atoms: _60  and  _62
REMARK   23  A    between atoms: _62  and  _63
REMARK   24  A    between atoms: _62  and  _65
REMARK   25  A    between atoms: _65  and  _66
REMARK   26  A    between atoms: _66  and  _67
REMARK   27  A    between atoms: _67  and  _68
REMARK   28  A    between atoms: _68  and  _69
REMARK   29  A    between atoms: _73  and  _75
REMARK   30  A    between atoms: _75  and  _76
REMARK   31  A    between atoms: _75  and  _78
REMARK   32  A    between atoms: _78  and  _79
REMARK   33  A    between atoms: _82  and  _84
REMARK   34  A    between atoms: _84  and  _85
REMARK   35  A    between atoms: _84  and  _87
REMARK   36  A    between atoms: _87  and  _88
REMARK   37  A    between atoms: _90  and  _92
REMARK   38  A    between atoms: _92  and  _93
REMARK   39  A    between atoms: _92  and  _95
REMARK   40  A    between atoms: _95  and  _96
REMARK   41  A    between atoms: _96  and  _97
REMARK   42  A    between atoms: _102  and  _104
REMARK   43  A    between atoms: _104  and  _105
REMARK   44  A    between atoms: _104  and  _107
REMARK   45  A    between atoms: _107  and  _108
REMARK   46  A    between atoms: _113  and  _114
REMARK   47  A    between atoms: _116  and  _118
REMARK   48  A    between atoms: _118  and  _119
REMARK   49  A    between atoms: _122  and  _123
REMARK   50  A    between atoms: _128  and  _130
REMARK   51  A    between atoms: _130  and  _131
REMARK   52  A    between atoms: _133  and  _135
REMARK   53  A    between atoms: _135  and  _136
REMARK   54  A    between atoms: _135  and  _138
REMARK   55  A    between atoms: _138  and  _139
REMARK   56  A    between atoms: _139  and  _140
REMARK   57  A    between atoms: _140  and  _141
REMARK   58  A    between atoms: _141  and  _142
REMARK   59  A    between atoms: _146  and  _148
REMARK   60  A    between atoms: _148  and  _149
REMARK   61  A    between atoms: _148  and  _151
REMARK   62  A    between atoms: _151  and  _152
REMARK   63  A    between atoms: _155  and  _157
REMARK   64  A    between atoms: _157  and  _158
REMARK   65  A    between atoms: _157  and  _160
REMARK   66  A    between atoms: _160  and  _161
REMARK   67  A    between atoms: _164  and  _166
REMARK   68  A    between atoms: _166  and  _167
REMARK   69  A    between atoms: _166  and  _169
REMARK   70  A    between atoms: _169  and  _170
REMARK   71  A    between atoms: _175  and  _177
REMARK   72  A    between atoms: _177  and  _178
REMARK   73  A    between atoms: _177  and  _180
REMARK   74  A    between atoms: _180  and  _181
REMARK   75  A    between atoms: _184  and  _186
REMARK   76  A    between atoms: _186  and  _187
REMARK   77  A    between atoms: _186  and  _189
REMARK   78  A    between atoms: _189  and  _190
REMARK   79  A    between atoms: _190  and  _191
REMARK   80  A    between atoms: _191  and  _192
REMARK   81  A    between atoms: _192  and  _193
REMARK   82  A    between atoms: _197  and  _199
REMARK   83  A    between atoms: _199  and  _200
REMARK   84  A    between atoms: _199  and  _202
REMARK   85  A    between atoms: _202  and  _203
REMARK   86  A    between atoms: _208  and  _209
REMARK   87  A    between atoms: _211  and  _213
REMARK   88  A    between atoms: _213  and  _214
REMARK   89  A    between atoms: _213  and  _216
REMARK   90  A    between atoms: _216  and  _217
REMARK   91  A    between atoms: _222  and  _223
REMARK   92  A    between atoms: _225  and  _227
REMARK   93  A    between atoms: _227  and  _228
REMARK   94  A    between atoms: _227  and  _230
REMARK   95  A    between atoms: _230  and  _231
REMARK   96  A    between atoms: _233  and  _235
REMARK   97  A    between atoms: _235  and  _236
REMARK   98  A    between atoms: _235  and  _238
REMARK   99  A    between atoms: _238  and  _239
REMARK                            x       y       z     vdW  Elec       q    Type
REMARK                         _______ _______ _______ _____ _____    ______ ____
ROOT
ATOM      1  O   HOH     1      34.086  14.436  22.561  0.00  0.00    +0.000 OA
ENDROOT
TORSDOF 0
REMARK  Name = ../refined-set-2016/2p3i/2p3i_pocket.pdb
REMARK  99 active torsions:
REMARK  status: ('A' for Active; 'I' for Inactive)
REMARK    1  A    between atoms: _1  and  _3
REMARK    2  A    between atoms: _3  and  _4
REMARK    3  A    between atoms: _3  and  _6
REMARK    4  A    between atoms: _6  and  _7
REMARK    5  A    between atoms: _10  and  _12
REMARK    6  A    between atoms: _12  and  _13
REMARK    7  A    between atoms: _12  and  _15
REMARK    8  A    between atoms: _15  and  _16
REMARK    9  A    between atoms: _16  and  _17
REMARK   10  A    between atoms: _17  and  _18
REMARK   11  A    between atoms: _27  and  _29
REMARK   12  A    between atoms: _29  and  _30
REMARK   13  A    between atoms: _29  and  _32
REMARK   14  A    between atoms: _32  and  _33
REMARK   15  A    between atoms: _43  and  _45
REMARK   16  A    between atoms: _45  and  _46
REMARK   17  A    between atoms: _45  and  _48
REMARK   18  A    between atoms: _48  and  _49
REMARK   19  A    between atoms: _52  and  _54
REMARK   20  A    between atoms: _54  and  _55
REMARK   21  A    between atoms: _54  and  _57
REMARK   22  A    between atoms: _60  and  _62
REMARK   23  A    between atoms: _62  and  _63
REMARK   24  A    between atoms: _62  and  _65
REMARK   25  A    between atoms: _65  and  _66
REMARK   26  A    between atoms: _66  and  _67
REMARK   27  A    between atoms: _67  and  _68
REMARK   28  A    between atoms: _68  and  _69
REMARK   29  A    between atoms: _73  and  _75
REMARK   30  A    between atoms: _75  and  _76
REMARK   31  A    between atoms: _75  and  _78
REMARK   32  A    between atoms: _78  and  _79
REMARK   33  A    between atoms: _82  and  _84
REMARK   34  A    between atoms: _84  and  _85
REMARK   35  A    between atoms: _84  and  _87
REMARK   36  A    between atoms: _87  and  _88
REMARK   37  A    between atoms: _90  and  _92
REMARK   38  A    between atoms: _92  and  _93
REMARK   39  A    between atoms: _92  and  _95
REMARK   40  A    between atoms: _95  and  _96
REMARK   41  A    between atoms: _96  and  _97
REMARK   42  A    between atoms: _102  and  _104
REMARK   43  A    between atoms: _104  and  _105
REMARK   44  A    between atoms: _104  and  _107
REMARK   45  A    between atoms: _107  and  _108
REMARK   46  A    between atoms: _113  and  _114
REMARK   47  A    between atoms: _116  and  _118
REMARK   48  A    between atoms: _118  and  _119
REMARK   49  A    between atoms: _122  and  _123
REMARK   50  A    between atoms: _128  and  _130
REMARK   51  A    between atoms: _130  and  _131
REMARK   52  A    between atoms: _133  and  _135
REMARK   53  A    between atoms: _135  and  _136
REMARK   54  A    between atoms: _135  and  _138
REMARK   55  A    between atoms: _138  and  _139
REMARK   56  A    between atoms: _139  and  _140
REMARK   57  A    between atoms: _140  and  _141
REMARK   58  A    between atoms: _141  and  _142
REMARK   59  A    between atoms: _146  and  _148
REMARK   60  A    between atoms: _148  and  _149
REMARK   61  A    between atoms: _148  and  _151
REMARK   62  A    between atoms: _151  and  _152
REMARK   63  A    between atoms: _155  and  _157
REMARK   64  A    between atoms: _157  and  _158
REMARK   65  A    between atoms: _157  and  _160
REMARK   66  A    between atoms: _160  and  _161
REMARK   67  A    between atoms: _164  and  _166
REMARK   68  A    between atoms: _166  and  _167
REMARK   69  A    between atoms: _166  and  _169
REMARK   70  A    between atoms: _169  and  _170
REMARK   71  A    between atoms: _175  and  _177
REMARK   72  A    between atoms: _177  and  _178
REMARK   73  A    between atoms: _177  and  _180
REMARK   74  A    between atoms: _180  and  _181
REMARK   75  A    between atoms: _184  and  _186
REMARK   76  A    between atoms: _186  and  _187
REMARK   77  A    between atoms: _186  and  _189
REMARK   78  A    between atoms: _189  and  _190
REMARK   79  A    between atoms: _190  and  _191
REMARK   80  A    between atoms: _191  and  _192
REMARK   81  A    between atoms: _192  and  _193
REMARK   82  A    between atoms: _197  and  _199
REMARK   83  A    between atoms: _199  and  _200
REMARK   84  A    between atoms: _199  and  _202
REMARK   85  A    between atoms: _202  and  _203
REMARK   86  A    between atoms: _208  and  _209
REMARK   87  A    between atoms: _211  and  _213
REMARK   88  A    between atoms: _213  and  _214
REMARK   89  A    between atoms: _213  and  _216
REMARK   90  A    between atoms: _216  and  _217
REMARK   91  A    between atoms: _222  and  _223
REMARK   92  A    between atoms: _225  and  _227
REMARK   93  A    between atoms: _227  and  _228
REMARK   94  A    between atoms: _227  and  _230
REMARK   95  A    between atoms: _230  and  _231
REMARK   96  A    between atoms: _233  and  _235
REMARK   97  A    between atoms: _235  and  _236
REMARK   98  A    between atoms: _235  and  _238
REMARK   99  A    between atoms: _238  and  _239
REMARK                            x       y       z     vdW  Elec       q    Type
REMARK                         _______ _______ _______ _____ _____    ______ ____
ROOT
ATOM      1  O   HOH     1      51.392   6.415  16.492  0.00  0.00    +0.000 OA
ENDROOT
TORSDOF 0
REMARK  Name = ../refined-set-2016/2p3i/2p3i_pocket.pdb
REMARK  99 active torsions:
REMARK  status: ('A' for Active; 'I' for Inactive)
REMARK    1  A    between atoms: _1  and  _3
REMARK    2  A    between atoms: _3  and  _4
REMARK    3  A    between atoms: _3  and  _6
REMARK    4  A    between atoms: _6  and  _7
REMARK    5  A    between atoms: _10  and  _12
REMARK    6  A    between atoms: _12  and  _13
REMARK    7  A    between atoms: _12  and  _15
REMARK    8  A    between atoms: _15  and  _16
REMARK    9  A    between atoms: _16  and  _17
REMARK   10  A    between atoms: _17  and  _18
REMARK   11  A    between atoms: _27  and  _29
REMARK   12  A    between atoms: _29  and  _30
REMARK   13  A    between atoms: _29  and  _32
REMARK   14  A    between atoms: _32  and  _33
REMARK   15  A    between atoms: _43  and  _45
REMARK   16  A    between atoms: _45  and  _46
REMARK   17  A    between atoms: _45  and  _48
REMARK   18  A    between atoms: _48  and  _49
REMARK   19  A    between atoms: _52  and  _54
REMARK   20  A    between atoms: _54  and  _55
REMARK   21  A    between atoms: _54  and  _57
REMARK   22  A    between atoms: _60  and  _62
REMARK   23  A    between atoms: _62  and  _63
REMARK   24  A    between atoms: _62  and  _65
REMARK   25  A    between atoms: _65  and  _66
REMARK   26  A    between atoms: _66  and  _67
REMARK   27  A    between atoms: _67  and  _68
REMARK   28  A    between atoms: _68  and  _69
REMARK   29  A    between atoms: _73  and  _75
REMARK   30  A    between atoms: _75  and  _76
REMARK   31  A    between atoms: _75  and  _78
REMARK   32  A    between atoms: _78  and  _79
REMARK   33  A    between atoms: _82  and  _84
REMARK   34  A    between atoms: _84  and  _85
REMARK   35  A    between atoms: _84  and  _87
REMARK   36  A    between atoms: _87  and  _88
REMARK   37  A    between atoms: _90  and  _92
REMARK   38  A    between atoms: _92  and  _93
REMARK   39  A    between atoms: _92  and  _95
REMARK   40  A    between atoms: _95  and  _96
REMARK   41  A    between atoms: _96  and  _97
REMARK   42  A    between atoms: _102  and  _104
REMARK   43  A    between atoms: _104  and  _105
REMARK   44  A    between atoms: _104  and  _107
REMARK   45  A    between atoms: _107  and  _108
REMARK   46  A    between atoms: _113  and  _114
REMARK   47  A    between atoms: _116  and  _118
REMARK   48  A    between atoms: _118  and  _119
REMARK   49  A    between atoms: _122  and  _123
REMARK   50  A    between atoms: _128  and  _130
REMARK   51  A    between atoms: _130  and  _131
REMARK   52  A    between atoms: _133  and  _135
REMARK   53  A    between atoms: _135  and  _136
REMARK   54  A    between atoms: _135  and  _138
REMARK   55  A    between atoms: _138  and  _139
REMARK   56  A    between atoms: _139  and  _140
REMARK   57  A    between atoms: _140  and  _141
REMARK   58  A    between atoms: _141  and  _142
REMARK   59  A    between atoms: _146  and  _148
REMARK   60  A    between atoms: _148  and  _149
REMARK   61  A    between atoms: _148  and  _151
REMARK   62  A    between atoms: _151  and  _152
REMARK   63  A    between atoms: _155  and  _157
REMARK   64  A    between atoms: _157  and  _158
REMARK   65  A    between atoms: _157  and  _160
REMARK   66  A    between atoms: _160  and  _161
REMARK   67  A    between atoms: _164  and  _166
REMARK   68  A    between atoms: _166  and  _167
REMARK   69  A    between atoms: _166  and  _169
REMARK   70  A    between atoms: _169  and  _170
REMARK   71  A    between atoms: _175  and  _177
REMARK   72  A    between atoms: _177  and  _178
REMARK   73  A    between atoms: _177  and  _180
REMARK   74  A    between atoms: _180  and  _181
REMARK   75  A    between atoms: _184  and  _186
REMARK   76  A    between atoms: _186  and  _187
REMARK   77  A    between atoms: _186  and  _189
REMARK   78  A    between atoms: _189  and  _190
REMARK   79  A    between atoms: _190  and  _191
REMARK   80  A    between atoms: _191  and  _192
REMARK   81  A    between atoms: _192  and  _193
REMARK   82  A    between atoms: _197  and  _199
REMARK   83  A    between atoms: _199  and  _200
REMARK   84  A    between atoms: _199  and  _202
REMARK   85  A    between atoms: _202  and  _203
REMARK   86  A    between atoms: _208  and  _209
REMARK   87  A    between atoms: _211  and  _213
REMARK   88  A    between atoms: _213  and  _214
REMARK   89  A    between atoms: _213  and  _216
REMARK   90  A    between atoms: _216  and  _217
REMARK   91  A    between atoms: _222  and  _223
REMARK   92  A    between atoms: _225  and  _227
REMARK   93  A    between atoms: _227  and  _228
REMARK   94  A    between atoms: _227  and  _230
REMARK   95  A    between atoms: _230  and  _231
REMARK   96  A    between atoms: _233  and  _235
REMARK   97  A    between atoms: _235  and  _236
REMARK   98  A    between atoms: _235  and  _238
REMARK   99  A    between atoms: _238  and  _239
REMARK                            x       y       z     vdW  Elec       q    Type
REMARK                         _______ _______ _______ _____ _____    ______ ____
ROOT
ATOM      1  O   HOH     1      48.928  16.580  14.274  0.00  0.00    +0.000 OA
ENDROOT
TORSDOF 0
REMARK  Name = ../refined-set-2016/2p3i/2p3i_pocket.pdb
REMARK  99 active torsions:
REMARK  status: ('A' for Active; 'I' for Inactive)
REMARK    1  A    between atoms: _1  and  _3
REMARK    2  A    between atoms: _3  and  _4
REMARK    3  A    between atoms: _3  and  _6
REMARK    4  A    between atoms: _6  and  _7
REMARK    5  A    between atoms: _10  and  _12
REMARK    6  A    between atoms: _12  and  _13
REMARK    7  A    between atoms: _12  and  _15
REMARK    8  A    between atoms: _15  and  _16
REMARK    9  A    between atoms: _16  and  _17
REMARK   10  A    between atoms: _17  and  _18
REMARK   11  A    between atoms: _27  and  _29
REMARK   12  A    between atoms: _29  and  _30
REMARK   13  A    between atoms: _29  and  _32
REMARK   14  A    between atoms: _32  and  _33
REMARK   15  A    between atoms: _43  and  _45
REMARK   16  A    between atoms: _45  and  _46
REMARK   17  A    between atoms: _45  and  _48
REMARK   18  A    between atoms: _48  and  _49
REMARK   19  A    between atoms: _52  and  _54
REMARK   20  A    between atoms: _54  and  _55
REMARK   21  A    between atoms: _54  and  _57
REMARK   22  A    between atoms: _60  and  _62
REMARK   23  A    between atoms: _62  and  _63
REMARK   24  A    between atoms: _62  and  _65
REMARK   25  A    between atoms: _65  and  _66
REMARK   26  A    between atoms: _66  and  _67
REMARK   27  A    between atoms: _67  and  _68
REMARK   28  A    between atoms: _68  and  _69
REMARK   29  A    between atoms: _73  and  _75
REMARK   30  A    between atoms: _75  and  _76
REMARK   31  A    between atoms: _75  and  _78
REMARK   32  A    between atoms: _78  and  _79
REMARK   33  A    between atoms: _82  and  _84
REMARK   34  A    between atoms: _84  and  _85
REMARK   35  A    between atoms: _84  and  _87
REMARK   36  A    between atoms: _87  and  _88
REMARK   37  A    between atoms: _90  and  _92
REMARK   38  A    between atoms: _92  and  _93
REMARK   39  A    between atoms: _92  and  _95
REMARK   40  A    between atoms: _95  and  _96
REMARK   41  A    between atoms: _96  and  _97
REMARK   42  A    between atoms: _102  and  _104
REMARK   43  A    between atoms: _104  and  _105
REMARK   44  A    between atoms: _104  and  _107
REMARK   45  A    between atoms: _107  and  _108
REMARK   46  A    between atoms: _113  and  _114
REMARK   47  A    between atoms: _116  and  _118
REMARK   48  A    between atoms: _118  and  _119
REMARK   49  A    between atoms: _122  and  _123
REMARK   50  A    between atoms: _128  and  _130
REMARK   51  A    between atoms: _130  and  _131
REMARK   52  A    between atoms: _133  and  _135
REMARK   53  A    between atoms: _135  and  _136
REMARK   54  A    between atoms: _135  and  _138
REMARK   55  A    between atoms: _138  and  _139
REMARK   56  A    between atoms: _139  and  _140
REMARK   57  A    between atoms: _140  and  _141
REMARK   58  A    between atoms: _141  and  _142
REMARK   59  A    between atoms: _146  and  _148
REMARK   60  A    between atoms: _148  and  _149
REMARK   61  A    between atoms: _148  and  _151
REMARK   62  A    between atoms: _151  and  _152
REMARK   63  A    between atoms: _155  and  _157
REMARK   64  A    between atoms: _157  and  _158
REMARK   65  A    between atoms: _157  and  _160
REMARK   66  A    between atoms: _160  and  _161
REMARK   67  A    between atoms: _164  and  _166
REMARK   68  A    between atoms: _166  and  _167
REMARK   69  A    between atoms: _166  and  _169
REMARK   70  A    between atoms: _169  and  _170
REMARK   71  A    between atoms: _175  and  _177
REMARK   72  A    between atoms: _177  and  _178
REMARK   73  A    between atoms: _177  and  _180
REMARK   74  A    between atoms: _180  and  _181
REMARK   75  A    between atoms: _184  and  _186
REMARK   76  A    between atoms: _186  and  _187
REMARK   77  A    between atoms: _186  and  _189
REMARK   78  A    between atoms: _189  and  _190
REMARK   79  A    between atoms: _190  and  _191
REMARK   80  A    between atoms: _191  and  _192
REMARK   81  A    between atoms: _192  and  _193
REMARK   82  A    between atoms: _197  and  _199
REMARK   83  A    between atoms: _199  and  _200
REMARK   84  A    between atoms: _199  and  _202
REMARK   85  A    between atoms: _202  and  _203
REMARK   86  A    between atoms: _208  and  _209
REMARK   87  A    between atoms: _211  and  _213
REMARK   88  A    between atoms: _213  and  _214
REMARK   89  A    between atoms: _213  and  _216
REMARK   90  A    between atoms: _216  and  _217
REMARK   91  A    between atoms: _222  and  _223
REMARK   92  A    between atoms: _225  and  _227
REMARK   93  A    between atoms: _227  and  _228
REMARK   94  A    between atoms: _227  and  _230
REMARK   95  A    between atoms: _230  and  _231
REMARK   96  A    between atoms: _233  and  _235
REMARK   97  A    between atoms: _235  and  _236
REMARK   98  A    between atoms: _235  and  _238
REMARK   99  A    between atoms: _238  and  _239
REMARK                            x       y       z     vdW  Elec       q    Type
REMARK                         _______ _______ _______ _____ _____    ______ ____
ROOT
ATOM      1  O   HOH     1      49.790  15.827  11.567  0.00  0.00    +0.000 OA
ENDROOT
TORSDOF 0
REMARK  Name = ../refined-set-2016/2p3i/2p3i_pocket.pdb
REMARK  99 active torsions:
REMARK  status: ('A' for Active; 'I' for Inactive)
REMARK    1  A    between atoms: _1  and  _3
REMARK    2  A    between atoms: _3  and  _4
REMARK    3  A    between atoms: _3  and  _6
REMARK    4  A    between atoms: _6  and  _7
REMARK    5  A    between atoms: _10  and  _12
REMARK    6  A    between atoms: _12  and  _13
REMARK    7  A    between atoms: _12  and  _15
REMARK    8  A    between atoms: _15  and  _16
REMARK    9  A    between atoms: _16  and  _17
REMARK   10  A    between atoms: _17  and  _18
REMARK   11  A    between atoms: _27  and  _29
REMARK   12  A    between atoms: _29  and  _30
REMARK   13  A    between atoms: _29  and  _32
REMARK   14  A    between atoms: _32  and  _33
REMARK   15  A    between atoms: _43  and  _45
REMARK   16  A    between atoms: _45  and  _46
REMARK   17  A    between atoms: _45  and  _48
REMARK   18  A    between atoms: _48  and  _49
REMARK   19  A    between atoms: _52  and  _54
REMARK   20  A    between atoms: _54  and  _55
REMARK   21  A    between atoms: _54  and  _57
REMARK   22  A    between atoms: _60  and  _62
REMARK   23  A    between atoms: _62  and  _63
REMARK   24  A    between atoms: _62  and  _65
REMARK   25  A    between atoms: _65  and  _66
REMARK   26  A    between atoms: _66  and  _67
REMARK   27  A    between atoms: _67  and  _68
REMARK   28  A    between atoms: _68  and  _69
REMARK   29  A    between atoms: _73  and  _75
REMARK   30  A    between atoms: _75  and  _76
REMARK   31  A    between atoms: _75  and  _78
REMARK   32  A    between atoms: _78  and  _79
REMARK   33  A    between atoms: _82  and  _84
REMARK   34  A    between atoms: _84  and  _85
REMARK   35  A    between atoms: _84  and  _87
REMARK   36  A    between atoms: _87  and  _88
REMARK   37  A    between atoms: _90  and  _92
REMARK   38  A    between atoms: _92  and  _93
REMARK   39  A    between atoms: _92  and  _95
REMARK   40  A    between atoms: _95  and  _96
REMARK   41  A    between atoms: _96  and  _97
REMARK   42  A    between atoms: _102  and  _104
REMARK   43  A    between atoms: _104  and  _105
REMARK   44  A    between atoms: _104  and  _107
REMARK   45  A    between atoms: _107  and  _108
REMARK   46  A    between atoms: _113  and  _114
REMARK   47  A    between atoms: _116  and  _118
REMARK   48  A    between atoms: _118  and  _119
REMARK   49  A    between atoms: _122  and  _123
REMARK   50  A    between atoms: _128  and  _130
REMARK   51  A    between atoms: _130  and  _131
REMARK   52  A    between atoms: _133  and  _135
REMARK   53  A    between atoms: _135  and  _136
REMARK   54  A    between atoms: _135  and  _138
REMARK   55  A    between atoms: _138  and  _139
REMARK   56  A    between atoms: _139  and  _140
REMARK   57  A    between atoms: _140  and  _141
REMARK   58  A    between atoms: _141  and  _142
REMARK   59  A    between atoms: _146  and  _148
REMARK   60  A    between atoms: _148  and  _149
REMARK   61  A    between atoms: _148  and  _151
REMARK   62  A    between atoms: _151  and  _152
REMARK   63  A    between atoms: _155  and  _157
REMARK   64  A    between atoms: _157  and  _158
REMARK   65  A    between atoms: _157  and  _160
REMARK   66  A    between atoms: _160  and  _161
REMARK   67  A    between atoms: _164  and  _166
REMARK   68  A    between atoms: _166  and  _167
REMARK   69  A    between atoms: _166  and  _169
REMARK   70  A    between atoms: _169  and  _170
REMARK   71  A    between atoms: _175  and  _177
REMARK   72  A    between atoms: _177  and  _178
REMARK   73  A    between atoms: _177  and  _180
REMARK   74  A    between atoms: _180  and  _181
REMARK   75  A    between atoms: _184  and  _186
REMARK   76  A    between atoms: _186  and  _187
REMARK   77  A    between atoms: _186  and  _189
REMARK   78  A    between atoms: _189  and  _190
REMARK   79  A    between atoms: _190  and  _191
REMARK   80  A    between atoms: _191  and  _192
REMARK   81  A    between atoms: _192  and  _193
REMARK   82  A    between atoms: _197  and  _199
REMARK   83  A    between atoms: _199  and  _200
REMARK   84  A    between atoms: _199  and  _202
REMARK   85  A    between atoms: _202  and  _203
REMARK   86  A    between atoms: _208  and  _209
REMARK   87  A    between atoms: _211  and  _213
REMARK   88  A    between atoms: _213  and  _214
REMARK   89  A    between atoms: _213  and  _216
REMARK   90  A    between atoms: _216  and  _217
REMARK   91  A    between atoms: _222  and  _223
REMARK   92  A    between atoms: _225  and  _227
REMARK   93  A    between atoms: _227  and  _228
REMARK   94  A    between atoms: _227  and  _230
REMARK   95  A    between atoms: _230  and  _231
REMARK   96  A    between atoms: _233  and  _235
REMARK   97  A    between atoms: _235  and  _236
REMARK   98  A    between atoms: _235  and  _238
REMARK   99  A    between atoms: _238  and  _239
REMARK                            x       y       z     vdW  Elec       q    Type
REMARK                         _______ _______ _______ _____ _____    ______ ____
ROOT
ATOM      1  O   HOH     1      46.621  11.293  22.606  0.00  0.00    +0.000 OA
ENDROOT
TORSDOF 0
REMARK  Name = ../refined-set-2016/2p3i/2p3i_pocket.pdb
REMARK  99 active torsions:
REMARK  status: ('A' for Active; 'I' for Inactive)
REMARK    1  A    between atoms: _1  and  _3
REMARK    2  A    between atoms: _3  and  _4
REMARK    3  A    between atoms: _3  and  _6
REMARK    4  A    between atoms: _6  and  _7
REMARK    5  A    between atoms: _10  and  _12
REMARK    6  A    between atoms: _12  and  _13
REMARK    7  A    between atoms: _12  and  _15
REMARK    8  A    between atoms: _15  and  _16
REMARK    9  A    between atoms: _16  and  _17
REMARK   10  A    between atoms: _17  and  _18
REMARK   11  A    between atoms: _27  and  _29
REMARK   12  A    between atoms: _29  and  _30
REMARK   13  A    between atoms: _29  and  _32
REMARK   14  A    between atoms: _32  and  _33
REMARK   15  A    between atoms: _43  and  _45
REMARK   16  A    between atoms: _45  and  _46
REMARK   17  A    between atoms: _45  and  _48
REMARK   18  A    between atoms: _48  and  _49
REMARK   19  A    between atoms: _52  and  _54
REMARK   20  A    between atoms: _54  and  _55
REMARK   21  A    between atoms: _54  and  _57
REMARK   22  A    between atoms: _60  and  _62
REMARK   23  A    between atoms: _62  and  _63
REMARK   24  A    between atoms: _62  and  _65
REMARK   25  A    between atoms: _65  and  _66
REMARK   26  A    between atoms: _66  and  _67
REMARK   27  A    between atoms: _67  and  _68
REMARK   28  A    between atoms: _68  and  _69
REMARK   29  A    between atoms: _73  and  _75
REMARK   30  A    between atoms: _75  and  _76
REMARK   31  A    between atoms: _75  and  _78
REMARK   32  A    between atoms: _78  and  _79
REMARK   33  A    between atoms: _82  and  _84
REMARK   34  A    between atoms: _84  and  _85
REMARK   35  A    between atoms: _84  and  _87
REMARK   36  A    between atoms: _87  and  _88
REMARK   37  A    between atoms: _90  and  _92
REMARK   38  A    between atoms: _92  and  _93
REMARK   39  A    between atoms: _92  and  _95
REMARK   40  A    between atoms: _95  and  _96
REMARK   41  A    between atoms: _96  and  _97
REMARK   42  A    between atoms: _102  and  _104
REMARK   43  A    between atoms: _104  and  _105
REMARK   44  A    between atoms: _104  and  _107
REMARK   45  A    between atoms: _107  and  _108
REMARK   46  A    between atoms: _113  and  _114
REMARK   47  A    between atoms: _116  and  _118
REMARK   48  A    between atoms: _118  and  _119
REMARK   49  A    between atoms: _122  and  _123
REMARK   50  A    between atoms: _128  and  _130
REMARK   51  A    between atoms: _130  and  _131
REMARK   52  A    between atoms: _133  and  _135
REMARK   53  A    between atoms: _135  and  _136
REMARK   54  A    between atoms: _135  and  _138
REMARK   55  A    between atoms: _138  and  _139
REMARK   56  A    between atoms: _139  and  _140
REMARK   57  A    between atoms: _140  and  _141
REMARK   58  A    between atoms: _141  and  _142
REMARK   59  A    between atoms: _146  and  _148
REMARK   60  A    between atoms: _148  and  _149
REMARK   61  A    between atoms: _148  and  _151
REMARK   62  A    between atoms: _151  and  _152
REMARK   63  A    between atoms: _155  and  _157
REMARK   64  A    between atoms: _157  and  _158
REMARK   65  A    between atoms: _157  and  _160
REMARK   66  A    between atoms: _160  and  _161
REMARK   67  A    between atoms: _164  and  _166
REMARK   68  A    between atoms: _166  and  _167
REMARK   69  A    between atoms: _166  and  _169
REMARK   70  A    between atoms: _169  and  _170
REMARK   71  A    between atoms: _175  and  _177
REMARK   72  A    between atoms: _177  and  _178
REMARK   73  A    between atoms: _177  and  _180
REMARK   74  A    between atoms: _180  and  _181
REMARK   75  A    between atoms: _184  and  _186
REMARK   76  A    between atoms: _186  and  _187
REMARK   77  A    between atoms: _186  and  _189
REMARK   78  A    between atoms: _189  and  _190
REMARK   79  A    between atoms: _190  and  _191
REMARK   80  A    between atoms: _191  and  _192
REMARK   81  A    between atoms: _192  and  _193
REMARK   82  A    between atoms: _197  and  _199
REMARK   83  A    between atoms: _199  and  _200
REMARK   84  A    between atoms: _199  and  _202
REMARK   85  A    between atoms: _202  and  _203
REMARK   86  A    between atoms: _208  and  _209
REMARK   87  A    between atoms: _211  and  _213
REMARK   88  A    between atoms: _213  and  _214
REMARK   89  A    between atoms: _213  and  _216
REMARK   90  A    between atoms: _216  and  _217
REMARK   91  A    between atoms: _222  and  _223
REMARK   92  A    between atoms: _225  and  _227
REMARK   93  A    between atoms: _227  and  _228
REMARK   94  A    between atoms: _227  and  _230
REMARK   95  A    between atoms: _230  and  _231
REMARK   96  A    between atoms: _233  and  _235
REMARK   97  A    between atoms: _235  and  _236
REMARK   98  A    between atoms: _235  and  _238
REMARK   99  A    between atoms: _238  and  _239
REMARK                            x       y       z     vdW  Elec       q    Type
REMARK                         _______ _______ _______ _____ _____    ______ ____
ROOT
ATOM      1  O   HOH     1      40.788  20.042  16.277  0.00  0.00    +0.000 OA
ENDROOT
TORSDOF 0
REMARK  Name = ../refined-set-2016/2p3i/2p3i_pocket.pdb
REMARK  99 active torsions:
REMARK  status: ('A' for Active; 'I' for Inactive)
REMARK    1  A    between atoms: _1  and  _3
REMARK    2  A    between atoms: _3  and  _4
REMARK    3  A    between atoms: _3  and  _6
REMARK    4  A    between atoms: _6  and  _7
REMARK    5  A    between atoms: _10  and  _12
REMARK    6  A    between atoms: _12  and  _13
REMARK    7  A    between atoms: _12  and  _15
REMARK    8  A    between atoms: _15  and  _16
REMARK    9  A    between atoms: _16  and  _17
REMARK   10  A    between atoms: _17  and  _18
REMARK   11  A    between atoms: _27  and  _29
REMARK   12  A    between atoms: _29  and  _30
REMARK   13  A    between atoms: _29  and  _32
REMARK   14  A    between atoms: _32  and  _33
REMARK   15  A    between atoms: _43  and  _45
REMARK   16  A    between atoms: _45  and  _46
REMARK   17  A    between atoms: _45  and  _48
REMARK   18  A    between atoms: _48  and  _49
REMARK   19  A    between atoms: _52  and  _54
REMARK   20  A    between atoms: _54  and  _55
REMARK   21  A    between atoms: _54  and  _57
REMARK   22  A    between atoms: _60  and  _62
REMARK   23  A    between atoms: _62  and  _63
REMARK   24  A    between atoms: _62  and  _65
REMARK   25  A    between atoms: _65  and  _66
REMARK   26  A    between atoms: _66  and  _67
REMARK   27  A    between atoms: _67  and  _68
REMARK   28  A    between atoms: _68  and  _69
REMARK   29  A    between atoms: _73  and  _75
REMARK   30  A    between atoms: _75  and  _76
REMARK   31  A    between atoms: _75  and  _78
REMARK   32  A    between atoms: _78  and  _79
REMARK   33  A    between atoms: _82  and  _84
REMARK   34  A    between atoms: _84  and  _85
REMARK   35  A    between atoms: _84  and  _87
REMARK   36  A    between atoms: _87  and  _88
REMARK   37  A    between atoms: _90  and  _92
REMARK   38  A    between atoms: _92  and  _93
REMARK   39  A    between atoms: _92  and  _95
REMARK   40  A    between atoms: _95  and  _96
REMARK   41  A    between atoms: _96  and  _97
REMARK   42  A    between atoms: _102  and  _104
REMARK   43  A    between atoms: _104  and  _105
REMARK   44  A    between atoms: _104  and  _107
REMARK   45  A    between atoms: _107  and  _108
REMARK   46  A    between atoms: _113  and  _114
REMARK   47  A    between atoms: _116  and  _118
REMARK   48  A    between atoms: _118  and  _119
REMARK   49  A    between atoms: _122  and  _123
REMARK   50  A    between atoms: _128  and  _130
REMARK   51  A    between atoms: _130  and  _131
REMARK   52  A    between atoms: _133  and  _135
REMARK   53  A    between atoms: _135  and  _136
REMARK   54  A    between atoms: _135  and  _138
REMARK   55  A    between atoms: _138  and  _139
REMARK   56  A    between atoms: _139  and  _140
REMARK   57  A    between atoms: _140  and  _141
REMARK   58  A    between atoms: _141  and  _142
REMARK   59  A    between atoms: _146  and  _148
REMARK   60  A    between atoms: _148  and  _149
REMARK   61  A    between atoms: _148  and  _151
REMARK   62  A    between atoms: _151  and  _152
REMARK   63  A    between atoms: _155  and  _157
REMARK   64  A    between atoms: _157  and  _158
REMARK   65  A    between atoms: _157  and  _160
REMARK   66  A    between atoms: _160  and  _161
REMARK   67  A    between atoms: _164  and  _166
REMARK   68  A    between atoms: _166  and  _167
REMARK   69  A    between atoms: _166  and  _169
REMARK   70  A    between atoms: _169  and  _170
REMARK   71  A    between atoms: _175  and  _177
REMARK   72  A    between atoms: _177  and  _178
REMARK   73  A    between atoms: _177  and  _180
REMARK   74  A    between atoms: _180  and  _181
REMARK   75  A    between atoms: _184  and  _186
REMARK   76  A    between atoms: _186  and  _187
REMARK   77  A    between atoms: _186  and  _189
REMARK   78  A    between atoms: _189  and  _190
REMARK   79  A    between atoms: _190  and  _191
REMARK   80  A    between atoms: _191  and  _192
REMARK   81  A    between atoms: _192  and  _193
REMARK   82  A    between atoms: _197  and  _199
REMARK   83  A    between atoms: _199  and  _200
REMARK   84  A    between atoms: _199  and  _202
REMARK   85  A    between atoms: _202  and  _203
REMARK   86  A    between atoms: _208  and  _209
REMARK   87  A    between atoms: _211  and  _213
REMARK   88  A    between atoms: _213  and  _214
REMARK   89  A    between atoms: _213  and  _216
REMARK   90  A    between atoms: _216  and  _217
REMARK   91  A    between atoms: _222  and  _223
REMARK   92  A    between atoms: _225  and  _227
REMARK   93  A    between atoms: _227  and  _228
REMARK   94  A    between atoms: _227  and  _230
REMARK   95  A    between atoms: _230  and  _231
REMARK   96  A    between atoms: _233  and  _235
REMARK   97  A    between atoms: _235  and  _236
REMARK   98  A    between atoms: _235  and  _238
REMARK   99  A    between atoms: _238  and  _239
REMARK                            x       y       z     vdW  Elec       q    Type
REMARK                         _______ _______ _______ _____ _____    ______ ____
ROOT
ATOM      1  O   HOH     1      47.563  20.524  13.322  0.00  0.00    +0.000 OA
ENDROOT
TORSDOF 0
REMARK  Name = ../refined-set-2016/2p3i/2p3i_pocket.pdb
REMARK  99 active torsions:
REMARK  status: ('A' for Active; 'I' for Inactive)
REMARK    1  A    between atoms: _1  and  _3
REMARK    2  A    between atoms: _3  and  _4
REMARK    3  A    between atoms: _3  and  _6
REMARK    4  A    between atoms: _6  and  _7
REMARK    5  A    between atoms: _10  and  _12
REMARK    6  A    between atoms: _12  and  _13
REMARK    7  A    between atoms: _12  and  _15
REMARK    8  A    between atoms: _15  and  _16
REMARK    9  A    between atoms: _16  and  _17
REMARK   10  A    between atoms: _17  and  _18
REMARK   11  A    between atoms: _27  and  _29
REMARK   12  A    between atoms: _29  and  _30
REMARK   13  A    between atoms: _29  and  _32
REMARK   14  A    between atoms: _32  and  _33
REMARK   15  A    between atoms: _43  and  _45
REMARK   16  A    between atoms: _45  and  _46
REMARK   17  A    between atoms: _45  and  _48
REMARK   18  A    between atoms: _48  and  _49
REMARK   19  A    between atoms: _52  and  _54
REMARK   20  A    between atoms: _54  and  _55
REMARK   21  A    between atoms: _54  and  _57
REMARK   22  A    between atoms: _60  and  _62
REMARK   23  A    between atoms: _62  and  _63
REMARK   24  A    between atoms: _62  and  _65
REMARK   25  A    between atoms: _65  and  _66
REMARK   26  A    between atoms: _66  and  _67
REMARK   27  A    between atoms: _67  and  _68
REMARK   28  A    between atoms: _68  and  _69
REMARK   29  A    between atoms: _73  and  _75
REMARK   30  A    between atoms: _75  and  _76
REMARK   31  A    between atoms: _75  and  _78
REMARK   32  A    between atoms: _78  and  _79
REMARK   33  A    between atoms: _82  and  _84
REMARK   34  A    between atoms: _84  and  _85
REMARK   35  A    between atoms: _84  and  _87
REMARK   36  A    between atoms: _87  and  _88
REMARK   37  A    between atoms: _90  and  _92
REMARK   38  A    between atoms: _92  and  _93
REMARK   39  A    between atoms: _92  and  _95
REMARK   40  A    between atoms: _95  and  _96
REMARK   41  A    between atoms: _96  and  _97
REMARK   42  A    between atoms: _102  and  _104
REMARK   43  A    between atoms: _104  and  _105
REMARK   44  A    between atoms: _104  and  _107
REMARK   45  A    between atoms: _107  and  _108
REMARK   46  A    between atoms: _113  and  _114
REMARK   47  A    between atoms: _116  and  _118
REMARK   48  A    between atoms: _118  and  _119
REMARK   49  A    between atoms: _122  and  _123
REMARK   50  A    between atoms: _128  and  _130
REMARK   51  A    between atoms: _130  and  _131
REMARK   52  A    between atoms: _133  and  _135
REMARK   53  A    between atoms: _135  and  _136
REMARK   54  A    between atoms: _135  and  _138
REMARK   55  A    between atoms: _138  and  _139
REMARK   56  A    between atoms: _139  and  _140
REMARK   57  A    between atoms: _140  and  _141
REMARK   58  A    between atoms: _141  and  _142
REMARK   59  A    between atoms: _146  and  _148
REMARK   60  A    between atoms: _148  and  _149
REMARK   61  A    between atoms: _148  and  _151
REMARK   62  A    between atoms: _151  and  _152
REMARK   63  A    between atoms: _155  and  _157
REMARK   64  A    between atoms: _157  and  _158
REMARK   65  A    between atoms: _157  and  _160
REMARK   66  A    between atoms: _160  and  _161
REMARK   67  A    between atoms: _164  and  _166
REMARK   68  A    between atoms: _166  and  _167
REMARK   69  A    between atoms: _166  and  _169
REMARK   70  A    between atoms: _169  and  _170
REMARK   71  A    between atoms: _175  and  _177
REMARK   72  A    between atoms: _177  and  _178
REMARK   73  A    between atoms: _177  and  _180
REMARK   74  A    between atoms: _180  and  _181
REMARK   75  A    between atoms: _184  and  _186
REMARK   76  A    between atoms: _186  and  _187
REMARK   77  A    between atoms: _186  and  _189
REMARK   78  A    between atoms: _189  and  _190
REMARK   79  A    between atoms: _190  and  _191
REMARK   80  A    between atoms: _191  and  _192
REMARK   81  A    between atoms: _192  and  _193
REMARK   82  A    between atoms: _197  and  _199
REMARK   83  A    between atoms: _199  and  _200
REMARK   84  A    between atoms: _199  and  _202
REMARK   85  A    between atoms: _202  and  _203
REMARK   86  A    between atoms: _208  and  _209
REMARK   87  A    between atoms: _211  and  _213
REMARK   88  A    between atoms: _213  and  _214
REMARK   89  A    between atoms: _213  and  _216
REMARK   90  A    between atoms: _216  and  _217
REMARK   91  A    between atoms: _222  and  _223
REMARK   92  A    between atoms: _225  and  _227
REMARK   93  A    between atoms: _227  and  _228
REMARK   94  A    between atoms: _227  and  _230
REMARK   95  A    between atoms: _230  and  _231
REMARK   96  A    between atoms: _233  and  _235
REMARK   97  A    between atoms: _235  and  _236
REMARK   98  A    between atoms: _235  and  _238
REMARK   99  A    between atoms: _238  and  _239
REMARK                            x       y       z     vdW  Elec       q    Type
REMARK                         _______ _______ _______ _____ _____    ______ ____
ROOT
ATOM      1  O   HOH     1      40.813  12.661  22.172  0.00  0.00    +0.000 OA
ENDROOT
TORSDOF 0
REMARK  Name = ../refined-set-2016/2p3i/2p3i_pocket.pdb
REMARK  99 active torsions:
REMARK  status: ('A' for Active; 'I' for Inactive)
REMARK    1  A    between atoms: _1  and  _3
REMARK    2  A    between atoms: _3  and  _4
REMARK    3  A    between atoms: _3  and  _6
REMARK    4  A    between atoms: _6  and  _7
REMARK    5  A    between atoms: _10  and  _12
REMARK    6  A    between atoms: _12  and  _13
REMARK    7  A    between atoms: _12  and  _15
REMARK    8  A    between atoms: _15  and  _16
REMARK    9  A    between atoms: _16  and  _17
REMARK   10  A    between atoms: _17  and  _18
REMARK   11  A    between atoms: _27  and  _29
REMARK   12  A    between atoms: _29  and  _30
REMARK   13  A    between atoms: _29  and  _32
REMARK   14  A    between atoms: _32  and  _33
REMARK   15  A    between atoms: _43  and  _45
REMARK   16  A    between atoms: _45  and  _46
REMARK   17  A    between atoms: _45  and  _48
REMARK   18  A    between atoms: _48  and  _49
REMARK   19  A    between atoms: _52  and  _54
REMARK   20  A    between atoms: _54  and  _55
REMARK   21  A    between atoms: _54  and  _57
REMARK   22  A    between atoms: _60  and  _62
REMARK   23  A    between atoms: _62  and  _63
REMARK   24  A    between atoms: _62  and  _65
REMARK   25  A    between atoms: _65  and  _66
REMARK   26  A    between atoms: _66  and  _67
REMARK   27  A    between atoms: _67  and  _68
REMARK   28  A    between atoms: _68  and  _69
REMARK   29  A    between atoms: _73  and  _75
REMARK   30  A    between atoms: _75  and  _76
REMARK   31  A    between atoms: _75  and  _78
REMARK   32  A    between atoms: _78  and  _79
REMARK   33  A    between atoms: _82  and  _84
REMARK   34  A    between atoms: _84  and  _85
REMARK   35  A    between atoms: _84  and  _87
REMARK   36  A    between atoms: _87  and  _88
REMARK   37  A    between atoms: _90  and  _92
REMARK   38  A    between atoms: _92  and  _93
REMARK   39  A    between atoms: _92  and  _95
REMARK   40  A    between atoms: _95  and  _96
REMARK   41  A    between atoms: _96  and  _97
REMARK   42  A    between atoms: _102  and  _104
REMARK   43  A    between atoms: _104  and  _105
REMARK   44  A    between atoms: _104  and  _107
REMARK   45  A    between atoms: _107  and  _108
REMARK   46  A    between atoms: _113  and  _114
REMARK   47  A    between atoms: _116  and  _118
REMARK   48  A    between atoms: _118  and  _119
REMARK   49  A    between atoms: _122  and  _123
REMARK   50  A    between atoms: _128  and  _130
REMARK   51  A    between atoms: _130  and  _131
REMARK   52  A    between atoms: _133  and  _135
REMARK   53  A    between atoms: _135  and  _136
REMARK   54  A    between atoms: _135  and  _138
REMARK   55  A    between atoms: _138  and  _139
REMARK   56  A    between atoms: _139  and  _140
REMARK   57  A    between atoms: _140  and  _141
REMARK   58  A    between atoms: _141  and  _142
REMARK   59  A    between atoms: _146  and  _148
REMARK   60  A    between atoms: _148  and  _149
REMARK   61  A    between atoms: _148  and  _151
REMARK   62  A    between atoms: _151  and  _152
REMARK   63  A    between atoms: _155  and  _157
REMARK   64  A    between atoms: _157  and  _158
REMARK   65  A    between atoms: _157  and  _160
REMARK   66  A    between atoms: _160  and  _161
REMARK   67  A    between atoms: _164  and  _166
REMARK   68  A    between atoms: _166  and  _167
REMARK   69  A    between atoms: _166  and  _169
REMARK   70  A    between atoms: _169  and  _170
REMARK   71  A    between atoms: _175  and  _177
REMARK   72  A    between atoms: _177  and  _178
REMARK   73  A    between atoms: _177  and  _180
REMARK   74  A    between atoms: _180  and  _181
REMARK   75  A    between atoms: _184  and  _186
REMARK   76  A    between atoms: _186  and  _187
REMARK   77  A    between atoms: _186  and  _189
REMARK   78  A    between atoms: _189  and  _190
REMARK   79  A    between atoms: _190  and  _191
REMARK   80  A    between atoms: _191  and  _192
REMARK   81  A    between atoms: _192  and  _193
REMARK   82  A    between atoms: _197  and  _199
REMARK   83  A    between atoms: _199  and  _200
REMARK   84  A    between atoms: _199  and  _202
REMARK   85  A    between atoms: _202  and  _203
REMARK   86  A    between atoms: _208  and  _209
REMARK   87  A    between atoms: _211  and  _213
REMARK   88  A    between atoms: _213  and  _214
REMARK   89  A    between atoms: _213  and  _216
REMARK   90  A    between atoms: _216  and  _217
REMARK   91  A    between atoms: _222  and  _223
REMARK   92  A    between atoms: _225  and  _227
REMARK   93  A    between atoms: _227  and  _228
REMARK   94  A    between atoms: _227  and  _230
REMARK   95  A    between atoms: _230  and  _231
REMARK   96  A    between atoms: _233  and  _235
REMARK   97  A    between atoms: _235  and  _236
REMARK   98  A    between atoms: _235  and  _238
REMARK   99  A    between atoms: _238  and  _239
REMARK                            x       y       z     vdW  Elec       q    Type
REMARK                         _______ _______ _______ _____ _____    ______ ____
ROOT
ATOM      1  O   HOH     1      41.106  16.567  20.742  0.00  0.00    +0.000 OA
ENDROOT
TORSDOF 0
REMARK  Name = ../refined-set-2016/2p3i/2p3i_pocket.pdb
REMARK  99 active torsions:
REMARK  status: ('A' for Active; 'I' for Inactive)
REMARK    1  A    between atoms: _1  and  _3
REMARK    2  A    between atoms: _3  and  _4
REMARK    3  A    between atoms: _3  and  _6
REMARK    4  A    between atoms: _6  and  _7
REMARK    5  A    between atoms: _10  and  _12
REMARK    6  A    between atoms: _12  and  _13
REMARK    7  A    between atoms: _12  and  _15
REMARK    8  A    between atoms: _15  and  _16
REMARK    9  A    between atoms: _16  and  _17
REMARK   10  A    between atoms: _17  and  _18
REMARK   11  A    between atoms: _27  and  _29
REMARK   12  A    between atoms: _29  and  _30
REMARK   13  A    between atoms: _29  and  _32
REMARK   14  A    between atoms: _32  and  _33
REMARK   15  A    between atoms: _43  and  _45
REMARK   16  A    between atoms: _45  and  _46
REMARK   17  A    between atoms: _45  and  _48
REMARK   18  A    between atoms: _48  and  _49
REMARK   19  A    between atoms: _52  and  _54
REMARK   20  A    between atoms: _54  and  _55
REMARK   21  A    between atoms: _54  and  _57
REMARK   22  A    between atoms: _60  and  _62
REMARK   23  A    between atoms: _62  and  _63
REMARK   24  A    between atoms: _62  and  _65
REMARK   25  A    between atoms: _65  and  _66
REMARK   26  A    between atoms: _66  and  _67
REMARK   27  A    between atoms: _67  and  _68
REMARK   28  A    between atoms: _68  and  _69
REMARK   29  A    between atoms: _73  and  _75
REMARK   30  A    between atoms: _75  and  _76
REMARK   31  A    between atoms: _75  and  _78
REMARK   32  A    between atoms: _78  and  _79
REMARK   33  A    between atoms: _82  and  _84
REMARK   34  A    between atoms: _84  and  _85
REMARK   35  A    between atoms: _84  and  _87
REMARK   36  A    between atoms: _87  and  _88
REMARK   37  A    between atoms: _90  and  _92
REMARK   38  A    between atoms: _92  and  _93
REMARK   39  A    between atoms: _92  and  _95
REMARK   40  A    between atoms: _95  and  _96
REMARK   41  A    between atoms: _96  and  _97
REMARK   42  A    between atoms: _102  and  _104
REMARK   43  A    between atoms: _104  and  _105
REMARK   44  A    between atoms: _104  and  _107
REMARK   45  A    between atoms: _107  and  _108
REMARK   46  A    between atoms: _113  and  _114
REMARK   47  A    between atoms: _116  and  _118
REMARK   48  A    between atoms: _118  and  _119
REMARK   49  A    between atoms: _122  and  _123
REMARK   50  A    between atoms: _128  and  _130
REMARK   51  A    between atoms: _130  and  _131
REMARK   52  A    between atoms: _133  and  _135
REMARK   53  A    between atoms: _135  and  _136
REMARK   54  A    between atoms: _135  and  _138
REMARK   55  A    between atoms: _138  and  _139
REMARK   56  A    between atoms: _139  and  _140
REMARK   57  A    between atoms: _140  and  _141
REMARK   58  A    between atoms: _141  and  _142
REMARK   59  A    between atoms: _146  and  _148
REMARK   60  A    between atoms: _148  and  _149
REMARK   61  A    between atoms: _148  and  _151
REMARK   62  A    between atoms: _151  and  _152
REMARK   63  A    between atoms: _155  and  _157
REMARK   64  A    between atoms: _157  and  _158
REMARK   65  A    between atoms: _157  and  _160
REMARK   66  A    between atoms: _160  and  _161
REMARK   67  A    between atoms: _164  and  _166
REMARK   68  A    between atoms: _166  and  _167
REMARK   69  A    between atoms: _166  and  _169
REMARK   70  A    between atoms: _169  and  _170
REMARK   71  A    between atoms: _175  and  _177
REMARK   72  A    between atoms: _177  and  _178
REMARK   73  A    between atoms: _177  and  _180
REMARK   74  A    between atoms: _180  and  _181
REMARK   75  A    between atoms: _184  and  _186
REMARK   76  A    between atoms: _186  and  _187
REMARK   77  A    between atoms: _186  and  _189
REMARK   78  A    between atoms: _189  and  _190
REMARK   79  A    between atoms: _190  and  _191
REMARK   80  A    between atoms: _191  and  _192
REMARK   81  A    between atoms: _192  and  _193
REMARK   82  A    between atoms: _197  and  _199
REMARK   83  A    between atoms: _199  and  _200
REMARK   84  A    between atoms: _199  and  _202
REMARK   85  A    between atoms: _202  and  _203
REMARK   86  A    between atoms: _208  and  _209
REMARK   87  A    between atoms: _211  and  _213
REMARK   88  A    between atoms: _213  and  _214
REMARK   89  A    between atoms: _213  and  _216
REMARK   90  A    between atoms: _216  and  _217
REMARK   91  A    between atoms: _222  and  _223
REMARK   92  A    between atoms: _225  and  _227
REMARK   93  A    between atoms: _227  and  _228
REMARK   94  A    between atoms: _227  and  _230
REMARK   95  A    between atoms: _230  and  _231
REMARK   96  A    between atoms: _233  and  _235
REMARK   97  A    between atoms: _235  and  _236
REMARK   98  A    between atoms: _235  and  _238
REMARK   99  A    between atoms: _238  and  _239
REMARK                            x       y       z     vdW  Elec       q    Type
REMARK                         _______ _______ _______ _____ _____    ______ ____
ROOT
ATOM      1  O   HOH     1      45.178  16.694  19.644  0.00  0.00    +0.000 OA
ENDROOT
TORSDOF 0
